
     RDKit          3D

 82 85  0  0  0  0  0  0  0  0999 V2000
   21.0500  -15.1550   25.5560 N   0  0  0  0  0  0  0  0  0  0  0  0
   15.3640  -15.5090   21.2580 C   0  0  2  0  0  0  0  0  0  0  0  0
   16.4280  -14.4660   21.6910 C   0  0  0  0  0  0  0  0  0  0  0  0
   16.4240  -14.1460   22.8810 O   0  0  0  0  0  0  0  0  0  0  0  0
   14.0050  -14.8560   20.8990 C   0  0  0  0  0  0  0  0  0  0  0  0
   13.2680  -14.1710   22.0660 C   0  0  0  0  0  0  0  0  0  0  0  0
   12.0610  -13.3430   21.6230 C   0  0  0  0  0  0  0  0  0  0  0  0
   11.3740  -12.7670   22.7880 N   0  0  0  0  0  0  0  0  0  0  0  0
   11.6370  -11.5790   23.3620 C   0  0  0  0  0  0  0  0  0  0  0  0
   12.6130  -10.7780   22.9120 N   0  0  0  0  0  0  0  0  0  0  0  0
   10.9180  -11.1800   24.4170 N   0  0  0  0  0  0  0  0  0  0  0  0
   21.3580  -13.9250   24.8430 C   0  0  0  0  0  0  0  0  0  0  0  0
   22.1220  -16.0850   25.8710 C   0  0  0  0  0  0  0  0  0  0  0  0
   16.5060  -13.7420   17.0330 C   0  0  0  0  0  0  0  0  0  0  0  0
   17.5810  -13.3020   16.0280 C   0  0  0  0  0  0  0  0  0  0  0  0
   16.7170  -13.2710   18.4870 C   0  0  0  0  0  0  0  0  0  0  0  0
   17.7460  -17.4190   22.6340 C   0  0  1  0  0  0  0  0  0  0  0  0
   15.1440  -16.5520   22.2690 N   0  0  0  0  0  0  0  0  0  0  0  0
   16.0560  -18.5200   20.8710 O   0  0  0  0  0  0  0  0  0  0  0  0
   16.0970  -14.7650   14.1060 S   0  0  0  0  0  0  0  0  0  0  0  0
   18.6910  -17.4980   21.5930 C   0  0  0  0  0  0  0  0  0  0  0  0
   18.4850  -12.5250   16.3390 O   0  0  0  0  0  0  0  0  0  0  0  0
   15.6000  -18.8580   23.3500 O   0  0  0  0  0  0  0  0  0  0  0  0
   19.9970  -17.0220   21.7810 C   0  0  0  0  0  0  0  0  0  0  0  0
   18.4370  -13.7110   13.6950 N   0  0  0  0  0  0  0  0  0  0  0  0
   20.3590  -16.4420   23.0070 C   0  0  0  0  0  0  0  0  0  0  0  0
   19.4290  -16.3350   24.0690 C   0  0  0  0  0  0  0  0  0  0  0  0
   19.7910  -15.7260   25.3060 C   0  0  0  0  0  0  0  0  0  0  0  0
   18.8550  -15.6680   26.3560 C   0  0  0  0  0  0  0  0  0  0  0  0
   17.5650  -16.1910   26.1890 C   0  0  0  0  0  0  0  0  0  0  0  0
   17.1960  -16.7700   24.9640 C   0  0  0  0  0  0  0  0  0  0  0  0
   18.1100  -16.8500   23.8890 C   0  0  0  0  0  0  0  0  0  0  0  0
   17.3250  -13.9280   20.8150 N   0  0  0  0  0  0  0  0  0  0  0  0
   17.4730  -14.2820   19.3810 C   0  0  2  0  0  0  0  0  0  0  0  0
   17.5070  -13.8490   14.6450 C   0  0  0  0  0  0  0  0  0  0  0  0
   18.9590  -14.5260   19.0150 C   0  0  0  0  0  0  0  0  0  0  0  0
   19.8910  -13.4010   19.4670 C   0  0  0  0  0  0  0  0  0  0  0  0
   18.0740  -14.3290   12.4960 C   0  0  0  0  0  0  0  0  0  0  0  0
   19.6880  -13.1260   20.9550 C   0  0  0  0  0  0  0  0  0  0  0  0
   16.8500  -14.9440   12.5450 C   0  0  0  0  0  0  0  0  0  0  0  0
   18.2130  -12.8230   21.2450 C   0  0  0  0  0  0  0  0  0  0  0  0
   16.0790  -18.0060   22.2490 S   0  0  1  0  0  0  0  0  0  0  0  0
   15.0100  -16.1610   23.2060 H   0  0  0  0  0  0  0  0  0  0  0  0
   10.6700  -13.3590   23.2120 H   0  0  0  0  0  0  0  0  0  0  0  0
   15.6750  -16.0460   20.3710 H   0  0  0  0  0  0  0  0  0  0  0  0
   13.3470  -15.6110   20.4650 H   0  0  0  0  0  0  0  0  0  0  0  0
   14.1590  -14.1260   20.1070 H   0  0  0  0  0  0  0  0  0  0  0  0
   13.9410  -13.5160   22.6160 H   0  0  0  0  0  0  0  0  0  0  0  0
   12.9250  -14.9330   22.7640 H   0  0  0  0  0  0  0  0  0  0  0  0
   11.3620  -13.9910   21.0960 H   0  0  0  0  0  0  0  0  0  0  0  0
   12.3490  -12.5580   20.9230 H   0  0  0  0  0  0  0  0  0  0  0  0
   12.8010   -9.8960   23.3700 H   0  0  0  0  0  0  0  0  0  0  0  0
   13.1990  -11.0710   22.1390 H   0  0  0  0  0  0  0  0  0  0  0  0
   11.1110  -10.2830   24.8460 H   0  0  0  0  0  0  0  0  0  0  0  0
   10.1340  -11.7260   24.7530 H   0  0  0  0  0  0  0  0  0  0  0  0
   21.8870  -13.2400   25.5060 H   0  0  0  0  0  0  0  0  0  0  0  0
   21.9990  -14.1210   23.9840 H   0  0  0  0  0  0  0  0  0  0  0  0
   20.4530  -13.4270   24.4910 H   0  0  0  0  0  0  0  0  0  0  0  0
   23.0930  -15.6130   25.7200 H   0  0  0  0  0  0  0  0  0  0  0  0
   22.0550  -16.3950   26.9140 H   0  0  0  0  0  0  0  0  0  0  0  0
   22.0780  -16.9760   25.2450 H   0  0  0  0  0  0  0  0  0  0  0  0
   18.4240  -17.9150   20.6360 H   0  0  0  0  0  0  0  0  0  0  0  0
   17.0280  -15.2470   19.1700 H   0  0  0  0  0  0  0  0  0  0  0  0
   20.7180  -17.0900   20.9800 H   0  0  0  0  0  0  0  0  0  0  0  0
   21.3710  -16.0830   23.1140 H   0  0  0  0  0  0  0  0  0  0  0  0
   18.7510  -14.2790   11.6560 H   0  0  0  0  0  0  0  0  0  0  0  0
   16.3450  -15.4860   11.7590 H   0  0  0  0  0  0  0  0  0  0  0  0
   19.1240  -15.2110   27.2980 H   0  0  0  0  0  0  0  0  0  0  0  0
   16.8520  -16.1400   26.9980 H   0  0  0  0  0  0  0  0  0  0  0  0
   16.1920  -17.1470   24.8860 H   0  0  0  0  0  0  0  0  0  0  0  0
   17.1930  -12.2920   18.5230 H   0  0  0  0  0  0  0  0  0  0  0  0
   15.7280  -13.1070   18.9110 H   0  0  0  0  0  0  0  0  0  0  0  0
   15.5560  -13.3500   16.6770 H   0  0  0  0  0  0  0  0  0  0  0  0
   16.4060  -14.8270   17.0070 H   0  0  0  0  0  0  0  0  0  0  0  0
   19.0790  -14.7000   17.9480 H   0  0  0  0  0  0  0  0  0  0  0  0
   19.2860  -15.4510   19.4900 H   0  0  0  0  0  0  0  0  0  0  0  0
   19.6920  -12.4990   18.8900 H   0  0  0  0  0  0  0  0  0  0  0  0
   20.9280  -13.6670   19.2720 H   0  0  0  0  0  0  0  0  0  0  0  0
   20.3140  -12.2880   21.2620 H   0  0  0  0  0  0  0  0  0  0  0  0
   20.0110  -13.9860   21.5410 H   0  0  0  0  0  0  0  0  0  0  0  0
   18.1300  -12.5860   22.3030 H   0  0  0  0  0  0  0  0  0  0  0  0
   17.9130  -11.9110   20.7300 H   0  0  0  0  0  0  0  0  0  0  0  0
  1 12  1  0
  1 13  1  0
  1 28  1  0
  2  3  1  0
  2  5  1  0
  2 45  1  6
  2 18  1  0
  3  4  1  0
  3 33  1  0
  5  6  1  0
  5 46  1  0
  5 47  1  0
  6  7  1  0
  6 48  1  0
  6 49  1  0
  7  8  1  0
  7 50  1  0
  7 51  1  0
  8  9  1  0
  8 44  1  0
  9 10  1  0
  9 11  1  0
 10 52  1  0
 10 53  1  0
 11 54  1  0
 11 55  1  0
 12 56  1  0
 12 57  1  0
 12 58  1  0
 13 59  1  0
 13 60  1  0
 13 61  1  0
 14 15  1  0
 14 73  1  0
 14 74  1  0
 14 16  1  0
 15 22  1  0
 15 35  1  0
 16 71  1  0
 16 72  1  0
 16 34  1  0
 17 21  1  6
 17 32  1  0
 17 42  1  0
 18 43  1  0
 18 42  1  0
 42 19  1  6
 20 35  1  0
 20 40  1  0
 21 24  1  0
 21 62  1  0
 23 42  1  0
 24 26  1  0
 24 64  1  0
 25 35  1  0
 25 38  1  0
 26 27  1  0
 26 65  1  0
 27 28  1  0
 27 32  1  0
 28 29  1  0
 29 30  1  0
 29 68  1  0
 30 31  1  0
 30 69  1  0
 31 32  1  0
 31 70  1  0
 33 34  1  0
 33 41  1  0
 34 36  1  0
 34 63  1  1
 36 37  1  0
 36 75  1  0
 36 76  1  0
 37 39  1  0
 37 77  1  0
 37 78  1  0
 38 66  1  0
 38 40  1  0
 39 41  1  0
 39 79  1  0
 39 80  1  0
 40 67  1  0
 41 81  1  0
 41 82  1  0
M  CHG  1  11   1
M  END
$$$$
