atom_num:40|mol_idx:8|smiles:CCCCCCCCCC|pdbid:ligd|real_atom:10|pred_atom:40.456329345703125|used_atom:40.456329345703125|auc:0|pred_lddt:0.9898313283920288
     RDKit          3D

 78 81  0  0  0  0  0  0  0  0999 V2000
   17.7958   24.6862   20.5721 O   0  0  0  0  0  0  0  0  0  0  0  0
   10.1441   19.3316   16.0980 S   0  0  0  0  0  6  0  0  0  0  0  0
   13.8202   20.3883   17.3451 C   0  0  1  0  0  0  0  0  0  0  0  0
    9.4316   19.0019   21.2404 C   0  0  0  0  0  0  0  0  0  0  0  0
    9.8934   15.6049   14.3421 C   0  0  0  0  0  0  0  0  0  0  0  0
   17.8708   23.8934   17.3441 C   0  0  0  0  0  0  0  0  0  0  0  0
   13.7150   23.2263   18.0927 O   0  0  0  0  0  0  0  0  0  0  0  0
   14.4081   23.0149   13.7211 C   0  0  0  0  0  0  0  0  0  0  0  0
    8.5157   17.1316   16.2120 C   0  0  0  0  0  0  0  0  0  0  0  0
   10.2836   21.0105   19.9329 C   0  0  0  0  0  0  0  0  0  0  0  0
   13.3332   19.2180   18.2809 C   0  0  1  0  0  0  0  0  0  0  0  0
   16.2804   21.2956   14.8628 C   0  0  0  0  0  0  0  0  0  0  0  0
   15.6720   22.8803   19.2143 O   0  0  0  0  0  0  0  0  0  0  0  0
    9.9623   18.7844   18.7556 C   0  0  0  0  0  0  0  0  0  0  0  0
   16.4044   25.1851   18.6807 C   0  0  2  0  0  0  0  0  0  0  0  0
   11.1189   19.8330   15.1552 O   0  0  0  0  0  0  0  0  0  0  0  0
   14.7824   21.1859   18.1112 N   0  0  0  0  0  0  0  0  0  0  0  0
   16.4382   24.3844   20.9157 C   0  0  0  0  0  0  0  0  0  0  0  0
    8.8931   20.0485   16.2733 O   0  0  0  0  0  0  0  0  0  0  0  0
   10.3716   16.8967   14.6415 C   0  0  0  0  0  0  0  0  0  0  0  0
   12.1796   18.3846   17.6554 C   0  0  0  0  0  0  0  0  0  0  0  0
   16.6352   24.7607   17.2498 C   0  0  0  0  0  0  0  0  0  0  0  0
   14.3479   18.3883   18.5331 O   0  0  0  0  0  1  0  0  0  0  0  0
   18.6711   24.4614   18.3880 O   0  0  0  0  0  0  0  0  0  0  0  0
    8.0618   15.8520   15.8967 C   0  0  0  0  0  0  0  0  0  0  0  0
    8.7606   15.0966   14.9698 C   0  0  0  0  0  0  0  0  0  0  0  0
   13.9846   21.9635   14.5359 C   0  0  0  0  0  0  0  0  0  0  0  0
   10.8774   19.1385   17.6301 N   0  0  0  0  0  0  0  0  0  0  0  0
   15.7668   23.2049   13.4740 C   0  0  0  0  0  0  0  0  0  0  0  0
    9.6841   17.6514   15.6170 C   0  0  0  0  0  0  0  0  0  0  0  0
   14.4600   19.9472   16.0023 C   0  0  0  0  0  0  0  0  0  0  0  0
   14.6254   22.4864   18.4393 C   0  0  0  0  0  0  0  0  0  0  0  0
    7.9465   19.3117   21.1101 C   0  0  0  0  0  0  0  0  0  0  0  0
   17.8135   25.2152   19.2498 C   0  0  2  0  0  0  0  0  0  0  0  0
   10.3241   19.4858   20.0758 C   0  0  2  0  0  0  0  0  0  0  0  0
   16.7033   22.3444   14.0441 C   0  0  0  0  0  0  0  0  0  0  0  0
   14.9163   21.0941   15.1164 C   0  0  0  0  0  0  0  0  0  0  0  0
   11.5621   17.3878   13.8660 C   0  0  0  0  0  0  0  0  0  0  0  0
   15.6516   24.2536   19.6211 C   0  0  2  0  0  0  0  0  0  0  0  0
    8.3273   13.8682   14.6575 F   0  0  0  0  0  0  0  0  0  0  0  0
   12.9558   21.0285   17.1278 H   0  0  0  0  0  0  0  0  0  0  0  0
    9.7967   19.4493   22.1735 H   0  0  0  0  0  0  0  0  0  0  0  0
    9.5527   17.9172   21.3535 H   0  0  0  0  0  0  0  0  0  0  0  0
   10.3964   14.9822   13.6062 H   0  0  0  0  0  0  0  0  0  0  0  0
   18.4439   23.8855   16.4126 H   0  0  0  0  0  0  0  0  0  0  0  0
   17.6389   22.8584   17.6110 H   0  0  0  0  0  0  0  0  0  0  0  0
   13.6718   23.6844   13.2864 H   0  0  0  0  0  0  0  0  0  0  0  0
    7.9446   17.7285   16.9194 H   0  0  0  0  0  0  0  0  0  0  0  0
   10.4816   21.4961   20.8943 H   0  0  0  0  0  0  0  0  0  0  0  0
    9.3111   21.3570   19.5690 H   0  0  0  0  0  0  0  0  0  0  0  0
   11.0427   21.3620   19.2267 H   0  0  0  0  0  0  0  0  0  0  0  0
   12.9023   19.7484   19.1376 H   0  0  0  0  0  0  0  0  0  0  0  0
   17.0172   20.6346   15.3139 H   0  0  0  0  0  0  0  0  0  0  0  0
    9.9515   17.6969   18.8953 H   0  0  0  0  0  0  0  0  0  0  0  0
    8.9391   19.0743   18.5011 H   0  0  0  0  0  0  0  0  0  0  0  0
   15.9514   26.1819   18.7409 H   0  0  0  0  0  0  0  0  0  0  0  0
   15.4569   20.6272   18.6165 H   0  0  0  0  0  0  0  0  0  0  0  0
   16.0652   25.2243   21.5123 H   0  0  0  0  0  0  0  0  0  0  0  0
   16.4202   23.4785   21.5287 H   0  0  0  0  0  0  0  0  0  0  0  0
   12.0247   17.4565   18.2251 H   0  0  0  0  0  0  0  0  0  0  0  0
   12.4517   18.0510   16.6523 H   0  0  0  0  0  0  0  0  0  0  0  0
   15.7912   24.2677   16.7654 H   0  0  0  0  0  0  0  0  0  0  0  0
   16.8746   25.6508   16.6540 H   0  0  0  0  0  0  0  0  0  0  0  0
    7.1685   15.4482   16.3612 H   0  0  0  0  0  0  0  0  0  0  0  0
   12.9220   21.8252   14.7279 H   0  0  0  0  0  0  0  0  0  0  0  0
   16.0940   24.0241   12.8414 H   0  0  0  0  0  0  0  0  0  0  0  0
   13.7567   19.3467   15.4185 H   0  0  0  0  0  0  0  0  0  0  0  0
   15.3231   19.2964   16.1920 H   0  0  0  0  0  0  0  0  0  0  0  0
    7.7630   20.3877   21.0404 H   0  0  0  0  0  0  0  0  0  0  0  0
    7.4129   18.9429   21.9927 H   0  0  0  0  0  0  0  0  0  0  0  0
    7.5071   18.8248   20.2350 H   0  0  0  0  0  0  0  0  0  0  0  0
   18.2081   26.2361   19.2923 H   0  0  0  0  0  0  0  0  0  0  0  0
   11.3423   19.2015   20.3596 H   0  0  0  0  0  0  0  0  0  0  0  0
   17.7632   22.4893   13.8582 H   0  0  0  0  0  0  0  0  0  0  0  0
   11.9501   16.6105   13.1976 H   0  0  0  0  0  0  0  0  0  0  0  0
   12.3851   17.6580   14.5281 H   0  0  0  0  0  0  0  0  0  0  0  0
   11.2834   18.2346   13.2317 H   0  0  0  0  0  0  0  0  0  0  0  0
   14.6192   24.5795   19.7952 H   0  0  0  0  0  0  0  0  0  0  0  0
  1 18  1  0
  2 16  2  0
  2 30  1  0
  2 19  2  0
  2 28  1  0
  3 31  1  0
  3 17  1  0
  3 11  1  0
  3 41  1  6
  4 35  1  0
  4 33  1  0
  4 42  1  0
  4 43  1  0
  5 26  2  0
  5 20  1  0
  5 44  1  0
  6 22  1  0
  6 24  1  0
  6 45  1  0
  6 46  1  0
  7 32  2  0
  8 29  2  0
  8 27  1  0
  8 47  1  0
  9 25  2  0
  9 30  1  0
  9 48  1  0
 10 49  1  0
 10 50  1  0
 10 51  1  0
 11 21  1  0
 11 23  1  0
 11 52  1  1
 12 36  2  0
 12 37  1  0
 12 53  1  0
 13 32  1  0
 14 28  1  0
 14 35  1  0
 14 54  1  0
 14 55  1  0
 15 22  1  0
 15 34  1  0
 15 39  1  0
 15 56  1  6
 17 32  1  0
 17 57  1  0
 18 39  1  0
 18 58  1  0
 18 59  1  0
 20 38  1  0
 20 30  2  0
 21 28  1  0
 21 60  1  0
 21 61  1  0
 22 62  1  0
 22 63  1  0
 24 34  1  0
 25 26  1  0
 25 64  1  0
 26 40  1  0
 27 37  2  0
 27 65  1  0
 29 36  1  0
 29 66  1  0
 31 37  1  0
 31 67  1  0
 31 68  1  0
 33 69  1  0
 33 70  1  0
 33 71  1  0
 34  1  1  0
 34 72  1  1
 35 10  1  0
 35 73  1  1
 36 74  1  0
 38 75  1  0
 38 76  1  0
 38 77  1  0
 39 13  1  0
 39 78  1  1
M  CHG  1  23  -1
M  END
$$$$
