atom_num:39|mol_idx:11|smiles:CCCCCCCCCC|pdbid:ligd|real_atom:10|pred_atom:40.456329345703125|used_atom:38.456329345703125|auc:0.4081885968798815|pred_lddt:0.9898009896278381
     RDKit          3D

 74 77  0  0  0  0  0  0  0  0999 V2000
   14.5296   23.1884   14.2779 C   0  0  0  0  0  0  0  0  0  0  0  0
   13.8840   22.3561   17.9856 N   0  0  0  0  0  0  0  0  0  0  0  0
    8.3945   19.9921   15.0078 O   0  0  0  0  0  0  0  0  0  0  0  0
   10.5644   16.2309   14.5340 C   0  0  0  0  0  0  0  0  0  0  0  0
    7.1104   18.9598   16.8961 O   0  0  0  0  0  0  0  0  0  0  0  0
   17.3740   23.7665   20.6359 C   0  0  0  0  0  0  0  0  0  0  0  0
    7.9371   20.6107   19.8551 C   0  0  0  0  0  0  0  0  0  0  0  0
   19.6334   22.3421   18.5828 C   0  0  0  0  0  0  0  0  0  0  0  0
   14.6006   21.9846   14.9876 C   0  0  0  0  0  0  0  0  0  0  0  0
   10.0790   17.4999   14.8785 C   0  0  0  0  0  0  0  0  0  0  0  0
   12.5526   19.9678   18.2947 O   0  0  0  0  0  1  0  0  0  0  0  0
    9.0667   17.6147   15.8313 C   0  0  0  0  0  0  0  0  0  0  0  0
   15.8167   21.2894   15.0110 C   0  0  0  0  0  0  0  0  0  0  0  0
   16.6868   23.9941   19.3031 C   0  0  1  0  0  0  0  0  0  0  0  0
   15.6401   23.6815   13.5930 C   0  0  0  0  0  0  0  0  0  0  0  0
   18.6567   24.4063   20.5394 O   0  0  0  0  0  0  0  0  0  0  0  0
   18.3128   22.5552   17.8813 C   0  0  0  0  0  0  0  0  0  0  0  0
    8.4947   16.4624   16.3806 C   0  0  0  0  0  0  0  0  0  0  0  0
   15.0834   24.2443   17.2730 O   0  0  0  0  0  0  0  0  0  0  0  0
    9.4430   19.0921   21.1540 C   0  0  0  0  0  0  0  0  0  0  0  0
   13.3724   21.4126   15.6824 C   0  0  0  0  0  0  0  0  0  0  0  0
    8.9780   15.2013   16.0220 C   0  0  0  0  0  0  0  0  0  0  0  0
   17.8492   23.9284   18.3296 C   0  0  2  0  0  0  0  0  0  0  0  0
   19.0046   24.4724   19.1501 C   0  0  2  0  0  0  0  0  0  0  0  0
   10.0557   15.0775   15.1408 C   0  0  0  0  0  0  0  0  0  0  0  0
    9.5853   19.0869   18.6483 C   0  0  0  0  0  0  0  0  0  0  0  0
    9.3198   19.9522   19.8924 C   0  0  0  0  0  0  0  0  0  0  0  0
   14.8595   23.2953   18.0139 C   0  0  0  0  0  0  0  0  0  0  0  0
   10.7495   20.4182   16.7976 C   0  0  0  0  0  0  0  0  0  0  0  0
   15.6614   23.0340   19.1002 O   0  0  0  0  0  0  0  0  0  0  0  0
   11.8194   20.9862   17.7928 C   0  0  2  0  0  0  0  0  0  0  0  0
   20.1395   23.6456   18.8909 O   0  0  0  0  0  0  0  0  0  0  0  0
   10.4611   13.8030   14.6961 N   0  0  0  0  0  0  0  0  0  0  0  0
   16.9285   21.7774   14.3216 C   0  0  0  0  0  0  0  0  0  0  0  0
    9.4584   19.8577   17.3864 N   0  0  0  0  0  0  0  0  0  0  0  0
    8.3818   19.2213   16.2369 S   0  0  0  0  0  6  0  0  0  0  0  0
   16.8399   22.9728   13.6085 C   0  0  0  0  0  0  0  0  0  0  0  0
   12.8335   22.0406   17.0178 C   0  0  1  0  0  0  0  0  0  0  0  0
   12.1678   23.1635   16.7844 O   0  0  0  0  0  1  0  0  0  0  0  0
   13.5939   23.7488   14.2968 H   0  0  0  0  0  0  0  0  0  0  0  0
   13.9489   21.5961   18.6525 H   0  0  0  0  0  0  0  0  0  0  0  0
   11.3471   16.1547   13.7853 H   0  0  0  0  0  0  0  0  0  0  0  0
   17.5252   22.7003   20.8515 H   0  0  0  0  0  0  0  0  0  0  0  0
   16.8091   24.2002   21.4694 H   0  0  0  0  0  0  0  0  0  0  0  0
    7.7568   21.1761   20.7732 H   0  0  0  0  0  0  0  0  0  0  0  0
    7.1369   19.8691   19.7501 H   0  0  0  0  0  0  0  0  0  0  0  0
    7.8586   21.3123   19.0184 H   0  0  0  0  0  0  0  0  0  0  0  0
   20.3535   21.8116   17.9523 H   0  0  0  0  0  0  0  0  0  0  0  0
   19.5092   21.7811   19.5161 H   0  0  0  0  0  0  0  0  0  0  0  0
   10.4908   18.3865   14.4004 H   0  0  0  0  0  0  0  0  0  0  0  0
   15.8831   20.3673   15.5828 H   0  0  0  0  0  0  0  0  0  0  0  0
   16.2625   25.0095   19.3128 H   0  0  0  0  0  0  0  0  0  0  0  0
   15.5552   24.6271   13.0672 H   0  0  0  0  0  0  0  0  0  0  0  0
   17.6078   21.7406   18.0729 H   0  0  0  0  0  0  0  0  0  0  0  0
   18.4909   22.5748   16.8010 H   0  0  0  0  0  0  0  0  0  0  0  0
    7.6596   16.5385   17.0746 H   0  0  0  0  0  0  0  0  0  0  0  0
    9.3420   19.7090   22.0552 H   0  0  0  0  0  0  0  0  0  0  0  0
   10.4199   18.5921   21.2010 H   0  0  0  0  0  0  0  0  0  0  0  0
    8.6596   18.3209   21.1795 H   0  0  0  0  0  0  0  0  0  0  0  0
   13.5978   20.3559   15.8587 H   0  0  0  0  0  0  0  0  0  0  0  0
   12.5727   21.3917   14.9309 H   0  0  0  0  0  0  0  0  0  0  0  0
    8.4879   14.3201   16.4280 H   0  0  0  0  0  0  0  0  0  0  0  0
   17.6566   24.5434   17.4413 H   0  0  0  0  0  0  0  0  0  0  0  0
   19.2499   25.5103   18.9127 H   0  0  0  0  0  0  0  0  0  0  0  0
   10.5365   18.5529   18.7065 H   0  0  0  0  0  0  0  0  0  0  0  0
    8.8264   18.2889   18.6616 H   0  0  0  0  0  0  0  0  0  0  0  0
   10.0557   20.7581   19.9679 H   0  0  0  0  0  0  0  0  0  0  0  0
   10.4066   21.2472   16.1673 H   0  0  0  0  0  0  0  0  0  0  0  0
   11.2053   19.6641   16.1506 H   0  0  0  0  0  0  0  0  0  0  0  0
   11.2556   21.6159   18.4999 H   0  0  0  0  0  0  0  0  0  0  0  0
   11.4246   13.8293   14.3685 H   0  0  0  0  0  0  0  0  0  0  0  0
   10.3240   13.0932   15.4069 H   0  0  0  0  0  0  0  0  0  0  0  0
   17.8618   21.2284   14.3534 H   0  0  0  0  0  0  0  0  0  0  0  0
   17.7051   23.3613   13.0881 H   0  0  0  0  0  0  0  0  0  0  0  0
  1 15  2  0
  1  9  1  0
  1 40  1  0
  2 38  1  0
  2 28  1  0
  2 41  1  0
  3 36  2  0
  4 25  2  0
  4 10  1  0
  4 42  1  0
  5 36  2  0
  6 14  1  0
  6 16  1  0
  6 43  1  0
  6 44  1  0
  7 45  1  0
  7 46  1  0
  7 47  1  0
  8 17  1  0
  8 32  1  0
  8 48  1  0
  8 49  1  0
  9 13  2  0
  9 21  1  0
 10 12  2  0
 10 50  1  0
 12 18  1  0
 12 36  1  0
 13 34  1  0
 13 51  1  0
 14 23  1  0
 14 30  1  0
 14 52  1  1
 15 37  1  0
 15 53  1  0
 17 54  1  0
 17 55  1  0
 18 22  2  0
 18 56  1  0
 19 28  2  0
 20 27  1  0
 20 57  1  0
 20 58  1  0
 20 59  1  0
 21 38  1  0
 21 60  1  0
 21 61  1  0
 22 25  1  0
 22 62  1  0
 23 17  1  0
 23 24  1  0
 23 63  1  6
 24 16  1  0
 24 32  1  0
 24 64  1  6
 25 33  1  0
 26 35  1  0
 26 27  1  0
 26 65  1  0
 26 66  1  0
 27  7  1  0
 27 67  1  0
 28 30  1  0
 29 35  1  0
 29 31  1  0
 29 68  1  0
 29 69  1  0
 31 11  1  0
 31 38  1  0
 31 70  1  1
 33 71  1  0
 33 72  1  0
 34 37  2  0
 34 73  1  0
 36 35  1  0
 37 74  1  0
 38 39  1  6
M  CHG  2  11  -1  39  -1
M  END
$$$$
