atom_num:38|mol_idx:8|smiles:CCCCCCCCCC|pdbid:ligd|real_atom:10|pred_atom:40.456329345703125|used_atom:40.456329345703125|auc:0.4433310031890869|pred_lddt:0.9899212718009949
     RDKit          3D

 74 77  0  0  0  0  0  0  0  0999 V2000
    8.3935   14.0395   14.2095 N   0  0  0  0  0  0  0  0  0  0  0  0
   14.8756   21.2197   15.1290 C   0  0  0  0  0  0  0  0  0  0  0  0
   14.3348   18.3401   18.4164 O   0  0  0  0  0  1  0  0  0  0  0  0
   10.1030   19.4579   16.0967 S   0  0  0  0  0  6  0  0  0  0  0  0
   13.3264   19.1921   18.2181 C   0  0  2  0  0  0  0  0  0  0  0  0
    8.3498   17.3306   15.9178 C   0  0  0  0  0  0  0  0  0  0  0  0
   16.6367   24.1840   21.0055 C   0  0  0  0  0  0  0  0  0  0  0  0
    8.8313   15.2649   14.7304 C   0  0  0  0  0  0  0  0  0  0  0  0
   10.8678   19.1746   17.5938 N   0  0  0  0  0  0  0  0  0  0  0  0
    9.9699   18.7477   18.7060 C   0  0  0  0  0  0  0  0  0  0  0  0
   16.2342   21.4059   14.8373 C   0  0  0  0  0  0  0  0  0  0  0  0
   10.4546   17.0737   14.7489 C   0  0  0  0  0  0  0  0  0  0  0  0
    7.9609   16.0605   15.4826 C   0  0  0  0  0  0  0  0  0  0  0  0
   15.8385   24.1258   19.7126 C   0  0  2  0  0  0  0  0  0  0  0  0
   10.0544   15.8052   14.3208 C   0  0  0  0  0  0  0  0  0  0  0  0
    9.6119   17.8206   15.5744 C   0  0  0  0  0  0  0  0  0  0  0  0
    9.3226   18.9809   21.1191 C   0  0  0  0  0  0  0  0  0  0  0  0
   12.1647   18.4105   17.5448 C   0  0  0  0  0  0  0  0  0  0  0  0
   18.8554   24.2141   18.4676 O   0  0  0  0  0  0  0  0  0  0  0  0
   15.7914   22.7643   19.2693 O   0  0  0  0  0  0  0  0  0  0  0  0
   14.4235   20.0338   15.9640 C   0  0  0  0  0  0  0  0  0  0  0  0
   18.0428   24.9899   19.3530 C   0  0  1  0  0  0  0  0  0  0  0  0
   13.8191   20.4085   17.3445 C   0  0  2  0  0  0  0  0  0  0  0  0
   16.6520   22.4876   14.0597 C   0  0  0  0  0  0  0  0  0  0  0  0
   14.3627   23.2217   13.8547 C   0  0  0  0  0  0  0  0  0  0  0  0
   18.0226   23.7189   17.4120 C   0  0  0  0  0  0  0  0  0  0  0  0
   14.7210   22.4394   18.4943 C   0  0  0  0  0  0  0  0  0  0  0  0
   15.7161   23.3965   13.5696 C   0  0  0  0  0  0  0  0  0  0  0  0
   14.8106   21.1403   18.1379 N   0  0  0  0  0  0  0  0  0  0  0  0
   10.2911   19.4551   20.0313 C   0  0  0  0  0  0  0  0  0  0  0  0
    8.8795   20.2026   16.3331 O   0  0  0  0  0  0  0  0  0  0  0  0
   10.2151   20.9778   19.8994 C   0  0  0  0  0  0  0  0  0  0  0  0
   11.0666   19.9417   15.1308 O   0  0  0  0  0  0  0  0  0  0  0  0
   16.6309   25.0455   18.7934 C   0  0  1  0  0  0  0  0  0  0  0  0
   16.8320   24.6501   17.3502 C   0  0  0  0  0  0  0  0  0  0  0  0
   13.8451   23.2303   18.1730 O   0  0  0  0  0  0  0  0  0  0  0  0
   18.0055   24.4312   20.6626 O   0  0  0  0  0  0  0  0  0  0  0  0
   13.9441   22.1371   14.6275 C   0  0  0  0  0  0  0  0  0  0  0  0
    9.1577   13.4152   13.9687 H   0  0  0  0  0  0  0  0  0  0  0  0
    7.6948   13.5843   14.7880 H   0  0  0  0  0  0  0  0  0  0  0  0
   12.9005   19.6742   19.1064 H   0  0  0  0  0  0  0  0  0  0  0  0
    7.6631   17.9328   16.5071 H   0  0  0  0  0  0  0  0  0  0  0  0
   16.5791   23.2633   21.5934 H   0  0  0  0  0  0  0  0  0  0  0  0
   16.3062   25.0236   21.6270 H   0  0  0  0  0  0  0  0  0  0  0  0
   10.0219   17.6596   18.8338 H   0  0  0  0  0  0  0  0  0  0  0  0
    8.9252   18.9668   18.4585 H   0  0  0  0  0  0  0  0  0  0  0  0
   16.9707   20.7057   15.2251 H   0  0  0  0  0  0  0  0  0  0  0  0
   11.4161   17.4722   14.4315 H   0  0  0  0  0  0  0  0  0  0  0  0
    6.9687   15.6974   15.7361 H   0  0  0  0  0  0  0  0  0  0  0  0
   14.8238   24.4958   19.9013 H   0  0  0  0  0  0  0  0  0  0  0  0
   10.7130   15.2416   13.6652 H   0  0  0  0  0  0  0  0  0  0  0  0
    9.3864   17.8955   21.2497 H   0  0  0  0  0  0  0  0  0  0  0  0
    8.2864   19.2322   20.8682 H   0  0  0  0  0  0  0  0  0  0  0  0
    9.5603   19.4470   22.0812 H   0  0  0  0  0  0  0  0  0  0  0  0
   12.0123   17.4419   18.0431 H   0  0  0  0  0  0  0  0  0  0  0  0
   12.4256   18.1546   16.5139 H   0  0  0  0  0  0  0  0  0  0  0  0
   15.2816   19.3632   16.1007 H   0  0  0  0  0  0  0  0  0  0  0  0
   13.7010   19.4735   15.3620 H   0  0  0  0  0  0  0  0  0  0  0  0
   18.4897   25.9879   19.4167 H   0  0  0  0  0  0  0  0  0  0  0  0
   12.9636   21.0765   17.1826 H   0  0  0  0  0  0  0  0  0  0  0  0
   17.7077   22.6195   13.8429 H   0  0  0  0  0  0  0  0  0  0  0  0
   13.6270   23.9277   13.4816 H   0  0  0  0  0  0  0  0  0  0  0  0
   17.7396   22.6894   17.6493 H   0  0  0  0  0  0  0  0  0  0  0  0
   18.5907   23.7097   16.4775 H   0  0  0  0  0  0  0  0  0  0  0  0
   16.0389   24.2409   12.9688 H   0  0  0  0  0  0  0  0  0  0  0  0
   15.4739   20.5389   18.6079 H   0  0  0  0  0  0  0  0  0  0  0  0
   11.2980   19.1810   20.3604 H   0  0  0  0  0  0  0  0  0  0  0  0
    9.2223   21.2977   19.5646 H   0  0  0  0  0  0  0  0  0  0  0  0
   10.9519   21.3543   19.1828 H   0  0  0  0  0  0  0  0  0  0  0  0
   10.4183   21.4601   20.8617 H   0  0  0  0  0  0  0  0  0  0  0  0
   16.2280   26.0613   18.8847 H   0  0  0  0  0  0  0  0  0  0  0  0
   15.9608   24.2141   16.8597 H   0  0  0  0  0  0  0  0  0  0  0  0
   17.1128   25.5428   16.7768 H   0  0  0  0  0  0  0  0  0  0  0  0
   12.8855   22.0087   14.8469 H   0  0  0  0  0  0  0  0  0  0  0  0
  1  8  1  0
  1 39  1  0
  1 40  1  0
  2 38  1  0
  2 11  2  0
  2 21  1  0
  4 33  2  0
  4 16  1  0
  4 31  2  0
  4  9  1  0
  5  3  1  0
  5 23  1  0
  5 18  1  0
  5 41  1  1
  6 13  2  0
  6 16  1  0
  6 42  1  0
  7 14  1  0
  7 37  1  0
  7 43  1  0
  7 44  1  0
  8 15  2  0
  8 13  1  0
  9 18  1  0
  9 10  1  0
 10 30  1  0
 10 45  1  0
 10 46  1  0
 11 24  1  0
 11 47  1  0
 12 15  1  0
 12 16  2  0
 12 48  1  0
 13 49  1  0
 14 34  1  0
 14 20  1  0
 14 50  1  1
 15 51  1  0
 17 52  1  0
 17 53  1  0
 17 54  1  0
 18 55  1  0
 18 56  1  0
 19 26  1  0
 20 27  1  0
 21 57  1  0
 21 58  1  0
 22 19  1  0
 22 34  1  0
 22 37  1  0
 22 59  1  1
 23 21  1  0
 23 29  1  0
 23 60  1  6
 24 28  2  0
 24 61  1  0
 25 28  1  0
 25 38  2  0
 25 62  1  0
 26 35  1  0
 26 63  1  0
 26 64  1  0
 27 29  1  0
 27 36  2  0
 28 65  1  0
 29 66  1  0
 30 17  1  0
 30 32  1  0
 30 67  1  0
 32 68  1  0
 32 69  1  0
 32 70  1  0
 34 35  1  0
 34 71  1  6
 35 72  1  0
 35 73  1  0
 38 74  1  0
M  CHG  1   3  -1
M  END
$$$$
