atom_num:40|mol_idx:8|smiles:CCCCCCCCCC|pdbid:ligd|real_atom:10|pred_atom:40.456329345703125|used_atom:40.456329345703125|auc:0|pred_lddt:0.9897779226303101
     RDKit          3D

 76 79  0  0  0  0  0  0  0  0999 V2000
   18.2840   25.7776   19.2063 C   0  0  1  0  0  0  0  0  0  0  0  0
   10.7352   19.2206   17.5428 N   0  0  0  0  0  0  0  0  0  0  0  0
   14.6993   21.1999   18.0725 N   0  0  0  0  0  0  0  0  0  0  0  0
   10.0090   15.8324   14.2608 C   0  0  0  0  0  0  0  0  0  0  0  0
   15.7706   23.2793   13.4987 C   0  0  0  0  0  0  0  0  0  0  0  0
   10.1426   19.4329   19.9837 C   0  0  0  0  0  0  0  0  0  0  0  0
    8.2654   17.3528   15.8199 C   0  0  0  0  0  0  0  0  0  0  0  0
   14.8480   21.1498   15.0758 C   0  0  0  0  0  0  0  0  0  0  0  0
   14.1791   18.4291   18.4748 O   0  0  0  0  0  1  0  0  0  0  0  0
   10.9849   19.9735   15.0799 O   0  0  0  0  0  0  0  0  0  0  0  0
   19.0325   23.5823   16.5101 O   0  0  0  0  0  0  0  0  0  0  0  0
    8.7701   20.2283   16.2316 O   0  0  0  0  0  0  0  0  0  0  0  0
   16.7651   24.4887   20.5635 C   0  0  0  0  0  0  0  0  0  0  0  0
   13.8719   23.3344   17.8397 O   0  0  0  0  0  0  0  0  0  0  0  0
   10.0625   20.9595   19.9121 C   0  0  0  0  0  0  0  0  0  0  0  0
   14.3519   20.0033   15.9388 C   0  0  0  0  0  0  0  0  0  0  0  0
    9.8147   18.7811   18.6317 C   0  0  0  0  0  0  0  0  0  0  0  0
   17.0430   24.4673   17.1529 N   0  0  0  0  0  0  0  0  0  0  0  0
   15.7563   22.8845   19.0399 O   0  0  0  0  0  0  0  0  0  0  0  0
   12.0404   18.4682   17.5277 C   0  0  0  0  0  0  0  0  0  0  0  0
   10.3951   17.1030   14.6957 C   0  0  0  0  0  0  0  0  0  0  0  0
    9.1794   18.9150   21.0559 C   0  0  0  0  0  0  0  0  0  0  0  0
   13.7182   20.4462   17.2857 C   0  0  1  0  0  0  0  0  0  0  0  0
   13.1852   19.2768   18.1996 C   0  0  2  0  0  0  0  0  0  0  0  0
   16.2209   21.4055   14.9555 C   0  0  0  0  0  0  0  0  0  0  0  0
    8.7794   15.2880   14.6447 C   0  0  0  0  0  0  0  0  0  0  0  0
   13.9434   21.9762   14.3982 C   0  0  0  0  0  0  0  0  0  0  0  0
   16.6797   22.4628   14.1681 C   0  0  0  0  0  0  0  0  0  0  0  0
   18.1147   24.8247   20.2448 O   0  0  0  0  0  0  0  0  0  0  0  0
    9.5322   17.8475   15.5019 C   0  0  0  0  0  0  0  0  0  0  0  0
   15.8292   24.2836   19.3593 C   0  0  2  0  0  0  0  0  0  0  0  0
    7.8906   16.0807   15.3781 C   0  0  0  0  0  0  0  0  0  0  0  0
   19.0087   25.0996   18.1746 N   0  0  0  0  0  0  0  0  0  0  0  0
   18.3915   24.3245   17.2443 C   0  0  0  0  0  0  0  0  0  0  0  0
   14.6919   22.5342   18.2684 C   0  0  0  0  0  0  0  0  0  0  0  0
   14.4027   23.0361   13.6140 C   0  0  0  0  0  0  0  0  0  0  0  0
   16.2274   25.1589   18.1465 C   0  0  1  0  0  0  0  0  0  0  0  0
    8.3572   14.0611   14.1152 N   0  0  0  0  0  0  0  0  0  0  0  0
   10.0030   19.4898   16.0269 S   0  0  0  0  0  6  0  0  0  0  0  0
   16.9978   26.3682   18.6476 C   0  0  0  0  0  0  0  0  0  0  0  0
   18.9339   26.5730   19.5847 H   0  0  0  0  0  0  0  0  0  0  0  0
   15.3514   20.6138   18.5760 H   0  0  0  0  0  0  0  0  0  0  0  0
   10.6836   15.2710   13.6198 H   0  0  0  0  0  0  0  0  0  0  0  0
   16.1282   24.1089   12.8968 H   0  0  0  0  0  0  0  0  0  0  0  0
   11.1518   19.1470   20.2964 H   0  0  0  0  0  0  0  0  0  0  0  0
    7.5639   17.9532   16.3933 H   0  0  0  0  0  0  0  0  0  0  0  0
   16.7910   23.5916   21.1911 H   0  0  0  0  0  0  0  0  0  0  0  0
   16.3801   25.3023   21.1907 H   0  0  0  0  0  0  0  0  0  0  0  0
    9.0640   21.2898   19.6057 H   0  0  0  0  0  0  0  0  0  0  0  0
   10.7866   21.3657   19.1990 H   0  0  0  0  0  0  0  0  0  0  0  0
   10.2786   21.4041   20.8895 H   0  0  0  0  0  0  0  0  0  0  0  0
   15.1941   19.3233   16.1216 H   0  0  0  0  0  0  0  0  0  0  0  0
   13.6348   19.4316   15.3403 H   0  0  0  0  0  0  0  0  0  0  0  0
    9.8388   17.6881   18.7205 H   0  0  0  0  0  0  0  0  0  0  0  0
    8.7791   19.0386   18.3826 H   0  0  0  0  0  0  0  0  0  0  0  0
   16.5869   23.7944   16.5423 H   0  0  0  0  0  0  0  0  0  0  0  0
   12.3167   18.1887   16.5074 H   0  0  0  0  0  0  0  0  0  0  0  0
   11.8885   17.5105   18.0469 H   0  0  0  0  0  0  0  0  0  0  0  0
   11.3614   17.5049   14.3971 H   0  0  0  0  0  0  0  0  0  0  0  0
    8.1416   19.1745   20.8194 H   0  0  0  0  0  0  0  0  0  0  0  0
    9.4212   19.3427   22.0350 H   0  0  0  0  0  0  0  0  0  0  0  0
    9.2446   17.8252   21.1428 H   0  0  0  0  0  0  0  0  0  0  0  0
   12.8784   21.1196   17.0700 H   0  0  0  0  0  0  0  0  0  0  0  0
   12.7333   19.8066   19.0478 H   0  0  0  0  0  0  0  0  0  0  0  0
   16.9387   20.7890   15.4929 H   0  0  0  0  0  0  0  0  0  0  0  0
   12.8736   21.7990   14.4925 H   0  0  0  0  0  0  0  0  0  0  0  0
   17.7475   22.6577   14.1012 H   0  0  0  0  0  0  0  0  0  0  0  0
   14.8369   24.5951   19.7162 H   0  0  0  0  0  0  0  0  0  0  0  0
    6.8945   15.7140   15.6105 H   0  0  0  0  0  0  0  0  0  0  0  0
   19.9622   24.8252   18.3548 H   0  0  0  0  0  0  0  0  0  0  0  0
   13.6879   23.6729   13.1022 H   0  0  0  0  0  0  0  0  0  0  0  0
   15.3250   25.4834   17.6172 H   0  0  0  0  0  0  0  0  0  0  0  0
    9.1281   13.4407   13.8862 H   0  0  0  0  0  0  0  0  0  0  0  0
    7.6501   13.6017   14.6796 H   0  0  0  0  0  0  0  0  0  0  0  0
   17.2143   27.0630   17.8269 H   0  0  0  0  0  0  0  0  0  0  0  0
   16.4312   26.9122   19.4112 H   0  0  0  0  0  0  0  0  0  0  0  0
  1 33  1  0
  1 40  1  0
  1 29  1  0
  1 41  1  1
  2 20  1  0
  2 17  1  0
  3 23  1  0
  3 35  1  0
  3 42  1  0
  4 26  2  0
  4 21  1  0
  4 43  1  0
  5 36  2  0
  5 28  1  0
  5 44  1  0
  6 17  1  0
  6 15  1  0
  6 22  1  0
  6 45  1  0
  7 32  2  0
  7 30  1  0
  7 46  1  0
  8 27  2  0
  8 25  1  0
  8 16  1  0
 10 39  2  0
 11 34  2  0
 12 39  2  0
 13 31  1  0
 13 29  1  0
 13 47  1  0
 13 48  1  0
 14 35  2  0
 15 49  1  0
 15 50  1  0
 15 51  1  0
 16 52  1  0
 16 53  1  0
 17 54  1  0
 17 55  1  0
 18 34  1  0
 18 56  1  0
 19 35  1  0
 20 24  1  0
 20 57  1  0
 20 58  1  0
 21 30  2  0
 21 59  1  0
 22 60  1  0
 22 61  1  0
 22 62  1  0
 23 16  1  0
 23 24  1  0
 23 63  1  6
 24  9  1  0
 24 64  1  1
 25 28  2  0
 25 65  1  0
 26 38  1  0
 26 32  1  0
 27 36  1  0
 27 66  1  0
 28 67  1  0
 30 39  1  0
 31 19  1  0
 31 37  1  0
 31 68  1  1
 32 69  1  0
 33 34  1  0
 33 70  1  0
 36 71  1  0
 37 18  1  0
 37 40  1  0
 37 72  1  6
 38 73  1  0
 38 74  1  0
 39  2  1  0
 40 75  1  0
 40 76  1  0
M  CHG  1   9  -1
M  END
$$$$
