atom_num:40|mol_idx:8|smiles:CCCCCCCCCC|pdbid:ligd|real_atom:10|pred_atom:40.456329345703125|used_atom:40.456329345703125|auc:0|pred_lddt:0.9898678660392761
     RDKit          3D

 74 77  0  0  0  0  0  0  0  0999 V2000
   10.5504   19.4989   19.8217 C   0  0  0  0  0  0  0  0  0  0  0  0
   16.2736   21.4317   14.4526 C   0  0  0  0  0  0  0  0  0  0  0  0
    8.5664   13.8259   14.2739 N   0  0  0  0  0  0  0  0  0  0  0  0
   15.8850   22.7104   18.9804 O   0  0  0  0  0  0  0  0  0  0  0  0
   11.1058   19.8270   14.8781 O   0  0  0  0  0  0  0  0  0  0  0  0
   13.9468   20.4239   16.9640 C   0  0  2  0  0  0  0  0  0  0  0  0
   16.7446   25.0329   17.4504 C   0  0  0  0  0  0  0  0  0  0  0  0
    9.7319   17.6844   15.4556 C   0  0  0  0  0  0  0  0  0  0  0  0
   16.6829   23.8234   20.9355 C   0  0  0  0  0  0  0  0  0  0  0  0
    8.9636   20.0703   16.1622 O   0  0  0  0  0  0  0  0  0  0  0  0
   12.3422   18.4037   17.2949 C   0  0  0  0  0  0  0  0  0  0  0  0
   13.5129   19.2292   17.8961 C   0  0  1  0  0  0  0  0  0  0  0  0
   10.4366   21.0139   19.6383 C   0  0  0  0  0  0  0  0  0  0  0  0
   13.9629   22.0777   14.1833 C   0  0  0  0  0  0  0  0  0  0  0  0
   10.5572   16.9347   14.6151 C   0  0  0  0  0  0  0  0  0  0  0  0
   13.7477   23.0525   18.2641 O   0  0  0  0  0  0  0  0  0  0  0  0
   18.0407   24.8265   19.3452 C   0  0  1  0  0  0  0  0  0  0  0  0
   17.8281   24.0123   17.1814 C   0  0  0  0  0  0  0  0  0  0  0  0
    9.6367   19.0459   20.9647 C   0  0  0  0  0  0  0  0  0  0  0  0
   14.4866   20.0172   15.5663 C   0  0  0  0  0  0  0  0  0  0  0  0
   15.7146   23.3997   13.1685 C   0  0  0  0  0  0  0  0  0  0  0  0
   14.9745   21.1877   17.6785 N   0  0  0  0  0  0  0  0  0  0  0  0
   10.1913   18.7365   18.5369 C   0  0  0  0  0  0  0  0  0  0  0  0
    8.5031   17.1700   15.8754 C   0  0  0  0  0  0  0  0  0  0  0  0
   14.5470   18.4039   18.0785 O   0  0  0  0  0  1  0  0  0  0  0  0
   10.1763   15.6413   14.2480 C   0  0  0  0  0  0  0  0  0  0  0  0
   15.8584   23.9686   19.6624 C   0  0  1  0  0  0  0  0  0  0  0  0
   16.6711   22.5271   13.6844 C   0  0  0  0  0  0  0  0  0  0  0  0
   14.9153   21.1972   14.7106 C   0  0  0  0  0  0  0  0  0  0  0  0
   16.6059   25.0702   18.9367 C   0  0  2  0  0  0  0  0  0  0  0  0
    8.9910   15.0801   14.7333 C   0  0  0  0  0  0  0  0  0  0  0  0
    8.1332   15.8751   15.5006 C   0  0  0  0  0  0  0  0  0  0  0  0
   18.0323   24.2158   20.6327 O   0  0  0  0  0  0  0  0  0  0  0  0
   17.1881   26.2582   17.0384 F   0  0  0  0  0  0  0  0  0  0  0  0
   11.0315   19.1414   17.3725 N   0  0  0  0  0  0  0  0  0  0  0  0
   14.7571   22.3659   18.3028 C   0  0  0  0  0  0  0  0  0  0  0  0
   10.1973   19.3521   15.9003 S   0  0  0  0  0  6  0  0  0  0  0  0
   15.5930   24.8105   16.8079 F   0  0  0  0  0  0  0  0  0  0  0  0
   18.6576   23.9811   18.3645 O   0  0  0  0  0  0  0  0  0  0  0  0
   14.3613   23.1747   13.4179 C   0  0  0  0  0  0  0  0  0  0  0  0
   11.5752   19.2571   20.1196 H   0  0  0  0  0  0  0  0  0  0  0  0
   17.0247   20.7628   14.8666 H   0  0  0  0  0  0  0  0  0  0  0  0
    9.3366   13.2162   14.0154 H   0  0  0  0  0  0  0  0  0  0  0  0
    7.9105   13.3700   14.9000 H   0  0  0  0  0  0  0  0  0  0  0  0
   13.0774   21.0800   16.8270 H   0  0  0  0  0  0  0  0  0  0  0  0
   16.6928   22.8043   21.3330 H   0  0  0  0  0  0  0  0  0  0  0  0
   16.3218   24.5049   21.7128 H   0  0  0  0  0  0  0  0  0  0  0  0
   12.5678   18.1215   16.2625 H   0  0  0  0  0  0  0  0  0  0  0  0
   12.2311   17.4483   17.8282 H   0  0  0  0  0  0  0  0  0  0  0  0
   13.1138   19.7315   18.7855 H   0  0  0  0  0  0  0  0  0  0  0  0
    9.4250   21.3013   19.3319 H   0  0  0  0  0  0  0  0  0  0  0  0
   11.1360   21.3784   18.8795 H   0  0  0  0  0  0  0  0  0  0  0  0
   10.6672   21.5354   20.5736 H   0  0  0  0  0  0  0  0  0  0  0  0
   12.9051   21.9138   14.3829 H   0  0  0  0  0  0  0  0  0  0  0  0
   11.4902   17.3499   14.2392 H   0  0  0  0  0  0  0  0  0  0  0  0
   18.6220   25.7538   19.3972 H   0  0  0  0  0  0  0  0  0  0  0  0
   18.4539   24.2944   16.3298 H   0  0  0  0  0  0  0  0  0  0  0  0
   17.4376   23.0073   17.0055 H   0  0  0  0  0  0  0  0  0  0  0  0
    8.5862   19.2693   20.7487 H   0  0  0  0  0  0  0  0  0  0  0  0
    9.9043   19.5504   21.8994 H   0  0  0  0  0  0  0  0  0  0  0  0
    9.7276   17.9670   21.1303 H   0  0  0  0  0  0  0  0  0  0  0  0
   13.7327   19.4590   15.0023 H   0  0  0  0  0  0  0  0  0  0  0  0
   15.3433   19.3392   15.6708 H   0  0  0  0  0  0  0  0  0  0  0  0
   16.0209   24.2581   12.5788 H   0  0  0  0  0  0  0  0  0  0  0  0
   15.7025   20.5949   18.0549 H   0  0  0  0  0  0  0  0  0  0  0  0
    9.1322   18.9234   18.3265 H   0  0  0  0  0  0  0  0  0  0  0  0
   10.2738   17.6551   18.7012 H   0  0  0  0  0  0  0  0  0  0  0  0
    7.8271   17.7718   16.4773 H   0  0  0  0  0  0  0  0  0  0  0  0
   10.8204   15.0751   13.5801 H   0  0  0  0  0  0  0  0  0  0  0  0
   14.8332   24.2560   19.9193 H   0  0  0  0  0  0  0  0  0  0  0  0
   17.7264   22.7001   13.4970 H   0  0  0  0  0  0  0  0  0  0  0  0
   16.2683   26.0448   19.3081 H   0  0  0  0  0  0  0  0  0  0  0  0
    7.1658   15.4919   15.8132 H   0  0  0  0  0  0  0  0  0  0  0  0
   13.6113   23.8562   13.0276 H   0  0  0  0  0  0  0  0  0  0  0  0
  1 23  1  0
  1 13  1  0
  1 19  1  0
  1 41  1  0
  2 28  2  0
  2 29  1  0
  2 42  1  0
  3 31  1  0
  3 43  1  0
  3 44  1  0
  4 36  1  0
  5 37  2  0
  6 20  1  0
  6 22  1  0
  6 12  1  0
  6 45  1  6
  7 38  1  0
  7 34  1  0
  7 18  1  0
  7 30  1  0
  8 15  2  0
  8 24  1  0
  8 37  1  0
  9 27  1  0
  9 33  1  0
  9 46  1  0
  9 47  1  0
 10 37  2  0
 11 35  1  0
 11 12  1  0
 11 48  1  0
 11 49  1  0
 12 25  1  0
 12 50  1  1
 13 51  1  0
 13 52  1  0
 13 53  1  0
 14 40  1  0
 14 29  2  0
 14 54  1  0
 15 26  1  0
 15 55  1  0
 16 36  2  0
 17 30  1  0
 17 39  1  0
 17 33  1  0
 17 56  1  1
 18 39  1  0
 18 57  1  0
 18 58  1  0
 19 59  1  0
 19 60  1  0
 19 61  1  0
 20 29  1  0
 20 62  1  0
 20 63  1  0
 21 40  2  0
 21 28  1  0
 21 64  1  0
 22 36  1  0
 22 65  1  0
 23 35  1  0
 23 66  1  0
 23 67  1  0
 24 32  2  0
 24 68  1  0
 26 31  2  0
 26 69  1  0
 27  4  1  0
 27 70  1  1
 28 71  1  0
 30 27  1  0
 30 72  1  6
 31 32  1  0
 32 73  1  0
 37 35  1  0
 40 74  1  0
M  CHG  1  25  -1
M  END
$$$$
