atom_num:40|mol_idx:18|smiles:CCCCCCCCCC|pdbid:ligd|real_atom:10|pred_atom:40.456329345703125|used_atom:40.456329345703125|auc:0|pred_lddt:0.9898396730422974
     RDKit          3D

 75 78  0  0  0  0  0  0  0  0999 V2000
   14.3478   21.7134   14.5241 C   0  0  0  0  0  0  0  0  0  0  0  0
    9.0873   18.8892   20.9492 C   0  0  0  0  0  0  0  0  0  0  0  0
   16.9580   24.8726   18.1276 C   0  0  1  0  0  0  0  0  0  0  0  0
    8.5822   17.0644   15.7679 C   0  0  0  0  0  0  0  0  0  0  0  0
   14.2087   18.5006   18.8463 O   0  0  0  0  0  1  0  0  0  0  0  0
   14.8088   22.5648   18.2046 C   0  0  0  0  0  0  0  0  0  0  0  0
   10.8590   19.0953   17.5288 N   0  0  0  0  0  0  0  0  0  0  0  0
    9.1911   14.9843   14.7195 C   0  0  0  0  0  0  0  0  0  0  0  0
   17.7320   24.7895   20.8818 O   0  0  0  0  0  0  0  0  0  0  0  0
   16.5755   20.9614   15.0573 C   0  0  0  0  0  0  0  0  0  0  0  0
   11.2908   19.7215   15.0511 O   0  0  0  0  0  0  0  0  0  0  0  0
    9.9905   20.9193   19.7978 C   0  0  0  0  0  0  0  0  0  0  0  0
   10.7818   16.7809   14.8028 C   0  0  0  0  0  0  0  0  0  0  0  0
   14.6181   19.8151   16.1861 C   0  0  0  0  0  0  0  0  0  0  0  0
   17.9584   23.7968   17.6643 C   0  0  0  0  0  0  0  0  0  0  0  0
    8.9879   19.9426   15.9988 O   0  0  0  0  0  0  0  0  0  0  0  0
   12.1835   18.3937   17.6785 C   0  0  0  0  0  0  0  0  0  0  0  0
   19.5201   24.5302   19.3940 O   0  0  0  0  0  0  0  0  0  0  0  0
   14.7353   21.2172   18.2347 N   0  0  0  0  0  0  0  0  0  0  0  0
   16.2588   22.7664   13.4850 C   0  0  0  0  0  0  0  0  0  0  0  0
   10.0994   19.3974   19.9187 C   0  0  0  0  0  0  0  0  0  0  0  0
   14.1703   23.3188   17.4841 O   0  0  0  0  0  0  0  0  0  0  0  0
   15.7238   22.9826   19.1233 O   0  0  0  0  0  0  0  0  0  0  0  0
    9.8633   18.7025   18.5684 C   0  0  0  0  0  0  0  0  0  0  0  0
    9.8631   17.5663   15.4917 C   0  0  0  0  0  0  0  0  0  0  0  0
   16.3288   24.7966   20.6197 C   0  0  0  0  0  0  0  0  0  0  0  0
    8.2510   15.7637   15.3857 C   0  0  0  0  0  0  0  0  0  0  0  0
   13.2387   19.2917   18.3799 C   0  0  2  0  0  0  0  0  0  0  0  0
   18.5387   25.4408   19.9039 C   0  0  1  0  0  0  0  0  0  0  0  0
   15.1904   20.8563   15.2412 C   0  0  0  0  0  0  0  0  0  0  0  0
   18.9238   23.3880   18.7723 C   0  0  0  0  0  0  0  0  0  0  0  0
   15.9307   24.4022   19.1830 C   0  0  1  0  0  0  0  0  0  0  0  0
   13.8524   20.3803   17.4150 C   0  0  2  0  0  0  0  0  0  0  0  0
   10.4524   15.4827   14.4220 C   0  0  0  0  0  0  0  0  0  0  0  0
   10.2578   19.2396   15.9399 S   0  0  0  0  0  6  0  0  0  0  0  0
    8.8696   13.7373   14.3516 F   0  0  0  0  0  0  0  0  0  0  0  0
   12.0026   17.2280   14.4870 F   0  0  0  0  0  0  0  0  0  0  0  0
   17.1072   21.9119   14.1846 C   0  0  0  0  0  0  0  0  0  0  0  0
   14.8797   22.6668   13.6547 C   0  0  0  0  0  0  0  0  0  0  0  0
   17.7604   26.0262   18.7257 C   0  0  0  0  0  0  0  0  0  0  0  0
   13.2691   21.6461   14.6548 H   0  0  0  0  0  0  0  0  0  0  0  0
    9.2654   19.3504   21.9277 H   0  0  0  0  0  0  0  0  0  0  0  0
    9.1705   17.8041   21.0722 H   0  0  0  0  0  0  0  0  0  0  0  0
    8.0593   19.1197   20.6476 H   0  0  0  0  0  0  0  0  0  0  0  0
   16.4102   25.2226   17.2433 H   0  0  0  0  0  0  0  0  0  0  0  0
    7.8426   17.6822   16.2733 H   0  0  0  0  0  0  0  0  0  0  0  0
   17.2436   20.3031   15.6059 H   0  0  0  0  0  0  0  0  0  0  0  0
   10.1637   21.3967   20.7689 H   0  0  0  0  0  0  0  0  0  0  0  0
    8.9966   21.2193   19.4463 H   0  0  0  0  0  0  0  0  0  0  0  0
   10.7293   21.3205   19.0974 H   0  0  0  0  0  0  0  0  0  0  0  0
   15.4389   19.1703   16.5255 H   0  0  0  0  0  0  0  0  0  0  0  0
   13.9640   19.1738   15.5863 H   0  0  0  0  0  0  0  0  0  0  0  0
   18.5458   24.2206   16.8391 H   0  0  0  0  0  0  0  0  0  0  0  0
   17.4515   22.9167   17.2608 H   0  0  0  0  0  0  0  0  0  0  0  0
   12.5521   18.0475   16.7103 H   0  0  0  0  0  0  0  0  0  0  0  0
   12.0147   17.4727   18.2553 H   0  0  0  0  0  0  0  0  0  0  0  0
   15.2537   20.6923   18.9261 H   0  0  0  0  0  0  0  0  0  0  0  0
   16.6700   23.5123   12.8123 H   0  0  0  0  0  0  0  0  0  0  0  0
   11.0946   19.1426   20.2977 H   0  0  0  0  0  0  0  0  0  0  0  0
    9.8765   17.6130   18.6955 H   0  0  0  0  0  0  0  0  0  0  0  0
    8.8498   18.9584   18.2395 H   0  0  0  0  0  0  0  0  0  0  0  0
   15.9661   25.8078   20.8401 H   0  0  0  0  0  0  0  0  0  0  0  0
   15.8589   24.1240   21.3447 H   0  0  0  0  0  0  0  0  0  0  0  0
    7.2670   15.3566   15.5978 H   0  0  0  0  0  0  0  0  0  0  0  0
   12.6933   19.8944   19.1178 H   0  0  0  0  0  0  0  0  0  0  0  0
   19.0864   26.2425   20.4099 H   0  0  0  0  0  0  0  0  0  0  0  0
   19.7333   22.7831   18.3498 H   0  0  0  0  0  0  0  0  0  0  0  0
   18.4317   22.7704   19.5317 H   0  0  0  0  0  0  0  0  0  0  0  0
   14.9723   24.9095   19.0072 H   0  0  0  0  0  0  0  0  0  0  0  0
   13.0345   21.0184   17.0573 H   0  0  0  0  0  0  0  0  0  0  0  0
   11.1767   14.8702   13.8962 H   0  0  0  0  0  0  0  0  0  0  0  0
   18.1826   21.9873   14.0589 H   0  0  0  0  0  0  0  0  0  0  0  0
   14.2111   23.3340   13.1203 H   0  0  0  0  0  0  0  0  0  0  0  0
   17.0935   26.8334   19.0440 H   0  0  0  0  0  0  0  0  0  0  0  0
   18.4494   26.4347   17.9774 H   0  0  0  0  0  0  0  0  0  0  0  0
  1 39  2  0
  1 30  1  0
  1 41  1  0
  2 42  1  0
  2 43  1  0
  2 44  1  0
  3 15  1  0
  3 40  1  0
  3 32  1  0
  3 45  1  6
  4 27  2  0
  4 25  1  0
  4 46  1  0
  6 19  1  0
  6 22  2  0
  6 23  1  0
  7 17  1  0
  7 24  1  0
  8 36  1  0
  8 34  2  0
  8 27  1  0
  9 26  1  0
 10 38  1  0
 10 30  2  0
 10 47  1  0
 11 35  2  0
 12 21  1  0
 12 48  1  0
 12 49  1  0
 12 50  1  0
 13 34  1  0
 13 37  1  0
 13 25  2  0
 14 30  1  0
 14 51  1  0
 14 52  1  0
 15 31  1  0
 15 53  1  0
 15 54  1  0
 16 35  2  0
 17 28  1  0
 17 55  1  0
 17 56  1  0
 18 31  1  0
 18 29  1  0
 19 33  1  0
 19 57  1  0
 20 39  1  0
 20 38  2  0
 20 58  1  0
 21  2  1  0
 21 24  1  0
 21 59  1  0
 24 60  1  0
 24 61  1  0
 25 35  1  0
 26 32  1  0
 26 62  1  0
 26 63  1  0
 27 64  1  0
 28  5  1  0
 28 33  1  0
 28 65  1  1
 29  9  1  0
 29 40  1  0
 29 66  1  1
 31 67  1  0
 31 68  1  0
 32 23  1  0
 32 69  1  6
 33 14  1  0
 33 70  1  6
 34 71  1  0
 35  7  1  0
 38 72  1  0
 39 73  1  0
 40 74  1  0
 40 75  1  0
M  CHG  1   5  -1
M  END
$$$$
