atom_num:37|mol_idx:14|smiles:CCCCCCCCCC|pdbid:ligd|real_atom:10|pred_atom:40.456329345703125|used_atom:36.456329345703125|auc:0.38197810294877854|pred_lddt:0.989902913570404
     RDKit          3D

 71 74  0  0  0  0  0  0  0  0999 V2000
   17.0023   24.4056   17.1553 C   0  0  0  0  0  0  0  0  0  0  0  0
   12.3194   18.1717   17.4334 C   0  0  0  0  0  0  0  0  0  0  0  0
   18.1778   23.4533   17.1418 C   0  0  0  0  0  0  0  0  0  0  0  0
   10.3842   16.6070   14.6789 S   0  0  0  0  0  0  0  0  0  0  0  0
    8.2545   17.0110   16.0395 C   0  0  0  0  0  0  0  0  0  0  0  0
    9.6409   19.1633   21.1555 C   0  0  0  0  0  0  0  0  0  0  0  0
   11.0510   18.9672   17.5774 N   0  0  0  0  0  0  0  0  0  0  0  0
   14.5434   18.0516   18.1614 O   0  0  0  0  0  1  0  0  0  0  0  0
   11.0152   19.5991   15.0605 O   0  0  0  0  0  0  0  0  0  0  0  0
    8.1223   15.7105   15.4727 C   0  0  0  0  0  0  0  0  0  0  0  0
   10.3614   21.0172   19.6277 C   0  0  0  0  0  0  0  0  0  0  0  0
   16.5445   22.3837   13.8097 C   0  0  0  0  0  0  0  0  0  0  0  0
   15.5566   23.2634   13.3693 C   0  0  0  0  0  0  0  0  0  0  0  0
   10.5474   19.5377   19.9788 C   0  0  0  0  0  0  0  0  0  0  0  0
   13.5316   18.9149   18.0584 C   0  0  1  0  0  0  0  0  0  0  0  0
   14.0413   22.9626   18.0642 O   0  0  0  0  0  0  0  0  0  0  0  0
   16.8651   24.7618   18.6158 C   0  0  2  0  0  0  0  0  0  0  0  0
   16.9406   23.8522   20.8044 C   0  0  0  0  0  0  0  0  0  0  0  0
   18.2975   24.6685   19.1166 C   0  0  1  0  0  0  0  0  0  0  0  0
   14.2237   23.0356   13.7090 C   0  0  0  0  0  0  0  0  0  0  0  0
    8.9777   19.9943   16.4785 O   0  0  0  0  0  0  0  0  0  0  0  0
   14.9290   22.1653   18.3322 C   0  0  0  0  0  0  0  0  0  0  0  0
   18.3004   24.0887   20.4177 O   0  0  0  0  0  0  0  0  0  0  0  0
   13.9691   20.1580   17.1931 C   0  0  2  0  0  0  0  0  0  0  0  0
   16.0317   22.4737   19.0682 O   0  0  0  0  0  0  0  0  0  0  0  0
    9.4529   17.6147   15.6964 C   0  0  0  0  0  0  0  0  0  0  0  0
   10.1501   19.2012   16.1499 S   0  0  0  0  0  6  0  0  0  0  0  0
   10.2543   18.6101   18.7861 C   0  0  0  0  0  0  0  0  0  0  0  0
   14.4877   19.8255   15.7674 C   0  0  0  0  0  0  0  0  0  0  0  0
   15.0022   20.8728   17.9469 N   0  0  0  0  0  0  0  0  0  0  0  0
   16.1993   21.2786   14.5899 C   0  0  0  0  0  0  0  0  0  0  0  0
    9.4179   14.1985   14.0567 N   0  0  0  0  0  0  0  0  0  0  0  0
    9.2185   15.3614   14.7136 C   0  0  0  0  0  0  0  0  0  0  0  0
   13.8779   21.9274   14.4846 C   0  0  0  0  0  0  0  0  0  0  0  0
   16.0976   23.8252   19.5390 C   0  0  2  0  0  0  0  0  0  0  0  0
   14.8621   21.0389   14.9343 C   0  0  0  0  0  0  0  0  0  0  0  0
   19.0570   23.8915   18.1857 O   0  0  0  0  0  0  0  0  0  0  0  0
   16.1050   23.9971   16.6892 H   0  0  0  0  0  0  0  0  0  0  0  0
   17.2767   25.3089   16.5961 H   0  0  0  0  0  0  0  0  0  0  0  0
   12.5140   17.9419   16.3816 H   0  0  0  0  0  0  0  0  0  0  0  0
   12.1737   17.1922   17.9116 H   0  0  0  0  0  0  0  0  0  0  0  0
   18.7112   23.4705   16.1870 H   0  0  0  0  0  0  0  0  0  0  0  0
   17.8827   22.4211   17.3495 H   0  0  0  0  0  0  0  0  0  0  0  0
    7.5181   17.4915   16.6741 H   0  0  0  0  0  0  0  0  0  0  0  0
    9.8718   19.7721   22.0379 H   0  0  0  0  0  0  0  0  0  0  0  0
    9.7789   18.1110   21.4319 H   0  0  0  0  0  0  0  0  0  0  0  0
    8.5841   19.3148   20.9060 H   0  0  0  0  0  0  0  0  0  0  0  0
    7.2651   15.0651   15.6191 H   0  0  0  0  0  0  0  0  0  0  0  0
   10.5441   21.6474   20.5071 H   0  0  0  0  0  0  0  0  0  0  0  0
    9.3440   21.2192   19.2726 H   0  0  0  0  0  0  0  0  0  0  0  0
   11.0612   21.3341   18.8481 H   0  0  0  0  0  0  0  0  0  0  0  0
   17.5853   22.5522   13.5520 H   0  0  0  0  0  0  0  0  0  0  0  0
   15.8230   24.1247   12.7641 H   0  0  0  0  0  0  0  0  0  0  0  0
   11.5786   19.3903   20.3152 H   0  0  0  0  0  0  0  0  0  0  0  0
   13.1705   19.3637   18.9911 H   0  0  0  0  0  0  0  0  0  0  0  0
   16.4804   25.7800   18.7527 H   0  0  0  0  0  0  0  0  0  0  0  0
   16.8919   22.9218   21.3780 H   0  0  0  0  0  0  0  0  0  0  0  0
   16.6414   24.6854   21.4508 H   0  0  0  0  0  0  0  0  0  0  0  0
   18.7679   25.6558   19.1776 H   0  0  0  0  0  0  0  0  0  0  0  0
   13.4449   23.7151   13.3752 H   0  0  0  0  0  0  0  0  0  0  0  0
   13.1035   20.8273   17.1009 H   0  0  0  0  0  0  0  0  0  0  0  0
   10.4358   17.5639   19.0688 H   0  0  0  0  0  0  0  0  0  0  0  0
    9.1791   18.6633   18.5659 H   0  0  0  0  0  0  0  0  0  0  0  0
   13.7362   19.2669   15.2002 H   0  0  0  0  0  0  0  0  0  0  0  0
   15.3640   19.1689   15.8320 H   0  0  0  0  0  0  0  0  0  0  0  0
   15.6904   20.2640   18.3689 H   0  0  0  0  0  0  0  0  0  0  0  0
   16.9769   20.6018   14.9367 H   0  0  0  0  0  0  0  0  0  0  0  0
   10.3758   13.9909   13.7775 H   0  0  0  0  0  0  0  0  0  0  0  0
    8.9075   13.3710   14.3554 H   0  0  0  0  0  0  0  0  0  0  0  0
   12.8347   21.7561   14.7431 H   0  0  0  0  0  0  0  0  0  0  0  0
   15.0911   24.1946   19.7686 H   0  0  0  0  0  0  0  0  0  0  0  0
  1  3  1  0
  1 38  1  0
  1 39  1  0
  2  7  1  0
  2 15  1  0
  2 40  1  0
  2 41  1  0
  3 37  1  0
  3 42  1  0
  3 43  1  0
  4 33  1  0
  4 26  1  0
  5 10  1  0
  5 26  2  0
  5 44  1  0
  6 45  1  0
  6 46  1  0
  6 47  1  0
  7 28  1  0
  9 27  2  0
 10 33  2  0
 10 48  1  0
 11 14  1  0
 11 49  1  0
 11 50  1  0
 11 51  1  0
 12 13  2  0
 12 31  1  0
 12 52  1  0
 13 20  1  0
 13 53  1  0
 14  6  1  0
 14 28  1  0
 14 54  1  0
 15  8  1  0
 15 24  1  0
 15 55  1  1
 16 22  2  0
 17  1  1  0
 17 19  1  0
 17 35  1  0
 17 56  1  6
 18 35  1  0
 18 23  1  0
 18 57  1  0
 18 58  1  0
 19 37  1  0
 19 23  1  0
 19 59  1  1
 20 34  2  0
 20 60  1  0
 21 27  2  0
 22 30  1  0
 22 25  1  0
 24 29  1  0
 24 30  1  0
 24 61  1  6
 26 27  1  0
 27  7  1  0
 28 62  1  0
 28 63  1  0
 29 36  1  0
 29 64  1  0
 29 65  1  0
 30 66  1  0
 31 36  2  0
 31 67  1  0
 32 33  1  0
 32 68  1  0
 32 69  1  0
 34 36  1  0
 34 70  1  0
 35 25  1  0
 35 71  1  1
M  CHG  1   8  -1
M  END
$$$$
