atom_num:36|mol_idx:14|smiles:CCCCCCCCCC|pdbid:ligd|real_atom:10|pred_atom:40.456329345703125|used_atom:36.456329345703125|auc:0.38357216119766235|pred_lddt:0.989919900894165
     RDKit          3D

 73 75  0  0  0  0  0  0  0  0999 V2000
    8.3909   17.1058   15.9398 C   0  0  0  0  0  0  0  0  0  0  0  0
    9.4714   17.7589   15.3392 C   0  0  0  0  0  0  0  0  0  0  0  0
   16.1980   21.8612   19.5426 O   0  0  0  0  0  0  0  0  0  0  0  0
   12.2583   18.4048   16.7625 C   0  0  0  0  0  0  0  0  0  0  0  0
   19.1770   23.6506   19.0644 O   0  0  0  0  0  0  0  0  0  0  0  0
   16.3839   23.5520   14.4136 C   0  0  0  0  0  0  0  0  0  0  0  0
   15.8483   22.2990   14.8934 C   0  0  0  0  0  0  0  0  0  0  0  0
    9.9065   19.4139   15.8514 S   0  0  0  0  0  6  0  0  0  0  0  0
   10.3360   19.3930   20.8825 C   0  0  0  0  0  0  0  0  0  0  0  0
   11.0136   19.1720   17.1221 N   0  0  0  0  0  0  0  0  0  0  0  0
   13.4983   18.8932   17.5620 C   0  0  1  0  0  0  0  0  0  0  0  0
   15.0079   20.7887   18.0128 N   0  0  0  0  0  0  0  0  0  0  0  0
   17.0091   24.1594   19.9527 C   0  0  1  0  0  0  0  0  0  0  0  0
   15.0115   21.8251   18.8783 C   0  0  0  0  0  0  0  0  0  0  0  0
   10.1577   17.1669   14.2740 C   0  0  0  0  0  0  0  0  0  0  0  0
   14.5171   18.0804   17.2818 O   0  0  0  0  0  1  0  0  0  0  0  0
    8.6978   20.0163   16.3825 O   0  0  0  0  0  0  0  0  0  0  0  0
    8.0221   15.8362   15.4918 C   0  0  0  0  0  0  0  0  0  0  0  0
   14.5845   22.0380   15.2889 C   0  0  0  0  0  0  0  0  0  0  0  0
   16.3347   22.9119   20.5060 C   0  0  2  0  0  0  0  0  0  0  0  0
   14.1952   20.6096   15.6789 C   0  0  0  0  0  0  0  0  0  0  0  0
    9.7789   15.8997   13.8282 C   0  0  0  0  0  0  0  0  0  0  0  0
   18.4788   23.9521   20.2760 C   0  0  1  0  0  0  0  0  0  0  0  0
   15.9023   24.2070   13.3515 C   0  0  0  0  0  0  0  0  0  0  0  0
   10.4565   18.7896   18.4470 C   0  0  0  0  0  0  0  0  0  0  0  0
   17.2957   22.4573   21.5923 C   0  0  0  0  0  0  0  0  0  0  0  0
   10.5856   20.0354   14.7318 O   0  0  0  0  0  0  0  0  0  0  0  0
   18.6077   22.9014   21.2300 O   0  0  0  0  0  0  0  0  0  0  0  0
   13.8734   20.3797   17.1834 C   0  0  1  0  0  0  0  0  0  0  0  0
    9.7947   21.1408   19.1776 C   0  0  0  0  0  0  0  0  0  0  0  0
   13.4668   23.0429   15.3579 C   0  0  0  0  0  0  0  0  0  0  0  0
   10.6568   19.9154   19.4800 C   0  0  0  0  0  0  0  0  0  0  0  0
   14.1125   22.6370   19.0470 O   0  0  0  0  0  0  0  0  0  0  0  0
   17.0249   24.3830   18.4592 C   0  0  0  0  0  0  0  0  0  0  0  0
   18.2177   23.5706   18.0046 C   0  0  0  0  0  0  0  0  0  0  0  0
    8.7151   15.2360   14.4384 C   0  0  0  0  0  0  0  0  0  0  0  0
    7.8364   17.5768   16.7467 H   0  0  0  0  0  0  0  0  0  0  0  0
   12.4508   18.4789   15.6872 H   0  0  0  0  0  0  0  0  0  0  0  0
   12.0687   17.3398   16.9567 H   0  0  0  0  0  0  0  0  0  0  0  0
   17.2684   23.9178   14.9224 H   0  0  0  0  0  0  0  0  0  0  0  0
   16.5807   21.4923   14.9402 H   0  0  0  0  0  0  0  0  0  0  0  0
   10.9795   18.5445   21.1388 H   0  0  0  0  0  0  0  0  0  0  0  0
    9.2949   19.0586   20.9547 H   0  0  0  0  0  0  0  0  0  0  0  0
   10.4975   20.1719   21.6356 H   0  0  0  0  0  0  0  0  0  0  0  0
   13.1909   18.9419   18.6152 H   0  0  0  0  0  0  0  0  0  0  0  0
   15.7294   20.0797   18.0900 H   0  0  0  0  0  0  0  0  0  0  0  0
   16.6255   25.0349   20.4927 H   0  0  0  0  0  0  0  0  0  0  0  0
   10.9845   17.6853   13.7929 H   0  0  0  0  0  0  0  0  0  0  0  0
    7.1892   15.3186   15.9596 H   0  0  0  0  0  0  0  0  0  0  0  0
   15.3628   23.1350   20.9610 H   0  0  0  0  0  0  0  0  0  0  0  0
   14.9941   19.9243   15.3660 H   0  0  0  0  0  0  0  0  0  0  0  0
   13.3276   20.3431   15.0662 H   0  0  0  0  0  0  0  0  0  0  0  0
   10.3153   15.4366   13.0055 H   0  0  0  0  0  0  0  0  0  0  0  0
   18.9312   24.8571   20.6945 H   0  0  0  0  0  0  0  0  0  0  0  0
   15.0429   23.8308   12.8043 H   0  0  0  0  0  0  0  0  0  0  0  0
   16.3648   25.1241   13.0073 H   0  0  0  0  0  0  0  0  0  0  0  0
   10.9312   17.8641   18.8000 H   0  0  0  0  0  0  0  0  0  0  0  0
    9.3880   18.5539   18.3731 H   0  0  0  0  0  0  0  0  0  0  0  0
   17.3148   21.3729   21.7297 H   0  0  0  0  0  0  0  0  0  0  0  0
   17.0525   22.9332   22.5482 H   0  0  0  0  0  0  0  0  0  0  0  0
   13.0220   21.0190   17.4497 H   0  0  0  0  0  0  0  0  0  0  0  0
    9.9218   21.9057   19.9529 H   0  0  0  0  0  0  0  0  0  0  0  0
    8.7338   20.8772   19.1339 H   0  0  0  0  0  0  0  0  0  0  0  0
   10.0792   21.5957   18.2233 H   0  0  0  0  0  0  0  0  0  0  0  0
   12.6797   22.7852   14.6410 H   0  0  0  0  0  0  0  0  0  0  0  0
   13.7960   24.0603   15.1353 H   0  0  0  0  0  0  0  0  0  0  0  0
   13.0291   23.0691   16.3583 H   0  0  0  0  0  0  0  0  0  0  0  0
   11.6992   20.2457   19.4791 H   0  0  0  0  0  0  0  0  0  0  0  0
   17.2276   25.4440   18.2638 H   0  0  0  0  0  0  0  0  0  0  0  0
   16.1019   24.1297   17.9344 H   0  0  0  0  0  0  0  0  0  0  0  0
   17.9717   22.5182   17.8391 H   0  0  0  0  0  0  0  0  0  0  0  0
   18.6628   23.9659   17.0874 H   0  0  0  0  0  0  0  0  0  0  0  0
    8.4238   14.2499   14.0869 H   0  0  0  0  0  0  0  0  0  0  0  0
  1 18  2  0
  1  2  1  0
  1 37  1  0
  2 15  2  0
  2  8  1  0
  3 14  1  0
  4 10  1  0
  4 11  1  0
  4 38  1  0
  4 39  1  0
  5 35  1  0
  6 24  2  3
  6  7  1  0
  6 40  1  0
  7 19  2  3
  7 41  1  0
  8 27  2  0
  8 17  2  0
  8 10  1  0
  9 42  1  0
  9 43  1  0
  9 44  1  0
 10 25  1  0
 11 29  1  0
 11 16  1  0
 11 45  1  1
 12 29  1  0
 12 14  1  0
 12 46  1  0
 13 34  1  0
 13 23  1  0
 13 20  1  0
 13 47  1  1
 14 33  2  0
 15 22  1  0
 15 48  1  0
 18 36  1  0
 18 49  1  0
 19 31  1  0
 19 21  1  0
 20  3  1  0
 20 26  1  0
 20 50  1  1
 21 51  1  0
 21 52  1  0
 22 36  2  0
 22 53  1  0
 23  5  1  0
 23 28  1  0
 23 54  1  1
 24 55  1  0
 24 56  1  0
 25 32  1  0
 25 57  1  0
 25 58  1  0
 26 28  1  0
 26 59  1  0
 26 60  1  0
 29 21  1  0
 29 61  1  1
 30 32  1  0
 30 62  1  0
 30 63  1  0
 30 64  1  0
 31 65  1  0
 31 66  1  0
 31 67  1  0
 32  9  1  0
 32 68  1  0
 34 35  1  0
 34 69  1  0
 34 70  1  0
 35 71  1  0
 35 72  1  0
 36 73  1  0
M  CHG  1  16  -1
M  END
$$$$
