atom_num:32|mol_idx:6|smiles:CCCCCCCCCC|pdbid:ligd|real_atom:10|pred_atom:40.456329345703125|used_atom:33.456329345703125|auc:0.27117716122393176|pred_lddt:0.98993980884552
     RDKit          3D

 59 61  0  0  0  0  0  0  0  0999 V2000
   13.8417   22.5316   14.3685 C   0  0  0  0  0  0  0  0  0  0  0  0
   11.1258   18.4733   13.8784 O   0  0  0  0  0  0  0  0  0  0  0  0
    8.2905   17.0324   16.0259 C   0  0  0  0  0  0  0  0  0  0  0  0
   17.2424   23.9298   20.4561 C   0  0  0  0  0  0  0  0  0  0  0  0
   12.3561   18.3311   16.6618 C   0  0  0  0  0  0  0  0  0  0  0  0
   14.4478   18.2717   17.7091 O   0  0  0  0  0  1  0  0  0  0  0  0
   14.4220   20.3298   15.4786 C   0  0  0  0  0  0  0  0  0  0  0  0
    7.7607   15.7862   16.3611 C   0  0  0  0  0  0  0  0  0  0  0  0
   14.0488   23.2070   17.9231 O   0  0  0  0  0  0  0  0  0  0  0  0
   10.2392   18.6971   15.0015 S   0  0  0  0  0  6  0  0  0  0  0  0
   10.3620   19.4869   17.5794 C   0  0  0  0  0  0  0  0  0  0  0  0
   10.3086   15.9493   15.2167 C   0  0  0  0  0  0  0  0  0  0  0  0
   18.5438   23.5741   19.9712 O   0  0  0  0  0  0  0  0  0  0  0  0
   13.8498   20.4434   16.9176 C   0  0  2  0  0  0  0  0  0  0  0  0
    9.1125   19.6015   14.8619 O   0  0  0  0  0  0  0  0  0  0  0  0
   16.7587   24.7555   18.1223 C   0  0  0  0  0  0  0  0  0  0  0  0
   14.2078   23.7528   13.8001 C   0  0  0  0  0  0  0  0  0  0  0  0
   14.8313   21.0466   17.8204 N   0  0  0  0  0  0  0  0  0  0  0  0
   16.2282   23.9372   19.3064 C   0  0  1  0  0  0  0  0  0  0  0  0
   18.2168   24.4183   17.8542 C   0  0  0  0  0  0  0  0  0  0  0  0
   15.5534   24.1072   13.7104 C   0  0  0  0  0  0  0  0  0  0  0  0
   14.8768   22.3453   18.1852 C   0  0  0  0  0  0  0  0  0  0  0  0
    9.7733   14.7072   15.5566 C   0  0  0  0  0  0  0  0  0  0  0  0
   18.9458   24.6481   19.0627 O   0  0  0  0  0  0  0  0  0  0  0  0
   14.8192   21.6540   14.8535 C   0  0  0  0  0  0  0  0  0  0  0  0
    8.5029   14.6267   16.1297 C   0  0  0  0  0  0  0  0  0  0  0  0
   16.0101   22.5705   18.9022 O   0  0  0  0  0  0  0  0  0  0  0  0
    9.5715   17.1098   15.4700 C   0  0  0  0  0  0  0  0  0  0  0  0
   13.3933   19.0756   17.5515 C   0  0  1  0  0  0  0  0  0  0  0  0
   16.1690   22.0215   14.7629 C   0  0  0  0  0  0  0  0  0  0  0  0
   16.5344   23.2416   14.1921 C   0  0  0  0  0  0  0  0  0  0  0  0
   11.1406   19.1626   16.3678 N   0  0  0  0  0  0  0  0  0  0  0  0
   12.7897   22.2641   14.4441 H   0  0  0  0  0  0  0  0  0  0  0  0
    7.7071   17.9333   16.1980 H   0  0  0  0  0  0  0  0  0  0  0  0
   16.9644   23.1877   21.2109 H   0  0  0  0  0  0  0  0  0  0  0  0
   17.3034   24.9119   20.9384 H   0  0  0  0  0  0  0  0  0  0  0  0
   12.8215   18.0163   15.7194 H   0  0  0  0  0  0  0  0  0  0  0  0
   12.0304   17.4130   17.1714 H   0  0  0  0  0  0  0  0  0  0  0  0
   15.2951   19.6649   15.4679 H   0  0  0  0  0  0  0  0  0  0  0  0
   13.6853   19.8679   14.8112 H   0  0  0  0  0  0  0  0  0  0  0  0
    6.7694   15.7185   16.8008 H   0  0  0  0  0  0  0  0  0  0  0  0
   10.8760   20.2586   18.1590 H   0  0  0  0  0  0  0  0  0  0  0  0
   10.2159   18.6028   18.2066 H   0  0  0  0  0  0  0  0  0  0  0  0
    9.3814   19.9032   17.3329 H   0  0  0  0  0  0  0  0  0  0  0  0
   11.2986   16.0101   14.7687 H   0  0  0  0  0  0  0  0  0  0  0  0
   12.9830   21.1163   16.8856 H   0  0  0  0  0  0  0  0  0  0  0  0
   16.1723   24.5901   17.2137 H   0  0  0  0  0  0  0  0  0  0  0  0
   16.6862   25.8186   18.3831 H   0  0  0  0  0  0  0  0  0  0  0  0
   13.4383   24.4265   13.4349 H   0  0  0  0  0  0  0  0  0  0  0  0
   15.5156   20.3878   18.1678 H   0  0  0  0  0  0  0  0  0  0  0  0
   15.2862   24.3572   19.6799 H   0  0  0  0  0  0  0  0  0  0  0  0
   18.6244   25.0770   17.0821 H   0  0  0  0  0  0  0  0  0  0  0  0
   18.3519   23.3819   17.5259 H   0  0  0  0  0  0  0  0  0  0  0  0
   15.8351   25.0588   13.2702 H   0  0  0  0  0  0  0  0  0  0  0  0
   10.3502   13.8035   15.3763 H   0  0  0  0  0  0  0  0  0  0  0  0
    8.0903   13.6564   16.3939 H   0  0  0  0  0  0  0  0  0  0  0  0
   12.8583   19.3678   18.4673 H   0  0  0  0  0  0  0  0  0  0  0  0
   16.9362   21.3540   15.1490 H   0  0  0  0  0  0  0  0  0  0  0  0
   17.5832   23.5144   14.1288 H   0  0  0  0  0  0  0  0  0  0  0  0
  1 17  2  0
  1 25  1  0
  1 33  1  0
  2 10  2  0
  3  8  2  0
  3 28  1  0
  3 34  1  0
  4 19  1  0
  4 13  1  0
  4 35  1  0
  4 36  1  0
  5 32  1  0
  5 29  1  0
  5 37  1  0
  5 38  1  0
  7 25  1  0
  7 39  1  0
  7 40  1  0
  8 26  1  0
  8 41  1  0
  9 22  2  0
 10 28  1  0
 10 15  2  0
 10 32  1  0
 11 32  1  0
 11 42  1  0
 11 43  1  0
 11 44  1  0
 12 23  1  0
 12 28  2  0
 12 45  1  0
 13 24  1  0
 14  7  1  0
 14 18  1  0
 14 29  1  0
 14 46  1  6
 16 20  1  0
 16 19  1  0
 16 47  1  0
 16 48  1  0
 17 21  1  0
 17 49  1  0
 18 22  1  0
 18 50  1  0
 19 27  1  0
 19 51  1  1
 20 24  1  0
 20 52  1  0
 20 53  1  0
 21 31  2  0
 21 54  1  0
 22 27  1  0
 23 26  2  0
 23 55  1  0
 25 30  2  0
 26 56  1  0
 29  6  1  0
 29 57  1  1
 30 31  1  0
 30 58  1  0
 31 59  1  0
M  CHG  1   6  -1
M  END
$$$$
