atom_num:39|mol_idx:13|smiles:CCCCCCCCCC|pdbid:ligd|real_atom:10|pred_atom:40.456329345703125|used_atom:41.456329345703125|auc:0.43295398354530334|pred_lddt:0.9898154139518738
     RDKit          3D

 72 75  0  0  0  0  0  0  0  0999 V2000
   10.7457   19.0806   17.5211 N   0  0  0  0  0  0  0  0  0  0  0  0
    9.5722   17.8059   15.3983 C   0  0  0  0  0  0  0  0  0  0  0  0
   10.0720   19.2766   19.9444 C   0  0  0  0  0  0  0  0  0  0  0  0
    8.4144   14.0061   14.0492 N   0  0  0  0  0  0  0  0  0  0  0  0
   16.3621   21.0741   15.0729 C   0  0  0  0  0  0  0  0  0  0  0  0
   10.0383   15.8012   14.1368 C   0  0  0  0  0  0  0  0  0  0  0  0
   16.0241   23.1090   13.8113 C   0  0  0  0  0  0  0  0  0  0  0  0
   12.0126   18.2653   17.5258 C   0  0  0  0  0  0  0  0  0  0  0  0
   18.7578   25.6361   18.0892 O   0  0  0  0  0  0  0  0  0  0  0  0
   17.3715   23.9519   20.5343 C   0  0  0  0  0  0  0  0  0  0  0  0
   17.5928   25.5923   18.9143 C   0  0  2  0  0  0  0  0  0  0  0  0
   16.2154   23.7703   19.5661 C   0  0  2  0  0  0  0  0  0  0  0  0
   15.9227   22.3905   19.3640 O   0  0  0  0  0  0  0  0  0  0  0  0
   14.6508   23.0109   14.0258 C   0  0  0  0  0  0  0  0  0  0  0  0
   10.4394   17.0563   14.6010 C   0  0  0  0  0  0  0  0  0  0  0  0
    8.8592   20.1882   16.1701 O   0  0  0  0  0  0  0  0  0  0  0  0
    9.0270   18.8093   20.9597 C   0  0  0  0  0  0  0  0  0  0  0  0
    7.9056   16.0679   15.2207 C   0  0  0  0  0  0  0  0  0  0  0  0
   14.1235   18.0939   18.5276 O   0  0  0  0  0  1  0  0  0  0  0  0
   14.4178   19.8025   16.0923 C   0  0  0  0  0  0  0  0  0  0  0  0
    8.7574   15.3132   14.4076 C   0  0  0  0  0  0  0  0  0  0  0  0
   16.8789   22.1387   14.3313 C   0  0  0  0  0  0  0  0  0  0  0  0
   14.9824   20.9679   15.2977 C   0  0  0  0  0  0  0  0  0  0  0  0
   13.1646   18.9886   18.2749 C   0  0  1  0  0  0  0  0  0  0  0  0
   19.6087   24.2969   16.4435 O   0  0  0  0  0  0  0  0  0  0  0  0
   14.8755   22.1631   18.5279 C   0  0  0  0  0  0  0  0  0  0  0  0
    8.2950   17.3242   15.6932 C   0  0  0  0  0  0  0  0  0  0  0  0
   14.1328   21.9442   14.7619 C   0  0  0  0  0  0  0  0  0  0  0  0
   17.9169   25.2541   20.2724 O   0  0  0  0  0  0  0  0  0  0  0  0
   11.1070   19.8977   15.0946 O   0  0  0  0  0  0  0  0  0  0  0  0
   17.6511   23.7707   17.5218 N   0  0  0  0  0  0  0  0  0  0  0  0
   10.0753   19.4157   15.9887 S   0  0  0  0  0  6  0  0  0  0  0  0
   14.7531   20.8384   18.3172 N   0  0  0  0  0  0  0  0  0  0  0  0
   18.7552   24.5351   17.2814 C   0  0  0  0  0  0  0  0  0  0  0  0
    9.7715   18.6579   18.5700 C   0  0  0  0  0  0  0  0  0  0  0  0
   16.7248   24.4959   18.3341 C   0  0  2  0  0  0  0  0  0  0  0  0
   10.0912   20.8072   19.8906 C   0  0  0  0  0  0  0  0  0  0  0  0
   13.7664   20.1894   17.4500 C   0  0  1  0  0  0  0  0  0  0  0  0
   14.1877   23.0531   18.0495 O   0  0  0  0  0  0  0  0  0  0  0  0
   11.0463   18.9273   20.3036 H   0  0  0  0  0  0  0  0  0  0  0  0
    8.9193   13.6561   13.2412 H   0  0  0  0  0  0  0  0  0  0  0  0
    7.4177   13.8352   13.9958 H   0  0  0  0  0  0  0  0  0  0  0  0
   17.0381   20.3242   15.4812 H   0  0  0  0  0  0  0  0  0  0  0  0
   10.7430   15.2092   13.5600 H   0  0  0  0  0  0  0  0  0  0  0  0
   16.4271   23.9357   13.2347 H   0  0  0  0  0  0  0  0  0  0  0  0
   12.3172   18.0175   16.5060 H   0  0  0  0  0  0  0  0  0  0  0  0
   11.7955   17.2966   17.9985 H   0  0  0  0  0  0  0  0  0  0  0  0
   18.1559   23.1957   20.3990 H   0  0  0  0  0  0  0  0  0  0  0  0
   17.0403   23.9049   21.5773 H   0  0  0  0  0  0  0  0  0  0  0  0
   17.1000   26.5693   18.9107 H   0  0  0  0  0  0  0  0  0  0  0  0
   15.3389   24.2904   19.9759 H   0  0  0  0  0  0  0  0  0  0  0  0
   13.9769   23.7618   13.6234 H   0  0  0  0  0  0  0  0  0  0  0  0
   11.4314   17.4305   14.3560 H   0  0  0  0  0  0  0  0  0  0  0  0
    8.0188   19.1280   20.6694 H   0  0  0  0  0  0  0  0  0  0  0  0
    9.2381   19.2205   21.9532 H   0  0  0  0  0  0  0  0  0  0  0  0
    9.0304   17.7179   21.0433 H   0  0  0  0  0  0  0  0  0  0  0  0
    6.9267   15.6837   15.4930 H   0  0  0  0  0  0  0  0  0  0  0  0
   15.2253   19.0780   16.2579 H   0  0  0  0  0  0  0  0  0  0  0  0
   13.6941   19.2983   15.4436 H   0  0  0  0  0  0  0  0  0  0  0  0
   17.9513   22.2132   14.1633 H   0  0  0  0  0  0  0  0  0  0  0  0
   12.7080   19.4822   19.1420 H   0  0  0  0  0  0  0  0  0  0  0  0
    7.6091   17.9094   16.2996 H   0  0  0  0  0  0  0  0  0  0  0  0
   13.0581   21.8738   14.9228 H   0  0  0  0  0  0  0  0  0  0  0  0
   17.3748   23.0552   16.8573 H   0  0  0  0  0  0  0  0  0  0  0  0
   15.3072   20.1796   18.8475 H   0  0  0  0  0  0  0  0  0  0  0  0
    9.7465   17.5637   18.6398 H   0  0  0  0  0  0  0  0  0  0  0  0
    8.7570   18.9630   18.2886 H   0  0  0  0  0  0  0  0  0  0  0  0
   15.9378   24.8784   17.6775 H   0  0  0  0  0  0  0  0  0  0  0  0
    9.1413   21.2036   19.5161 H   0  0  0  0  0  0  0  0  0  0  0  0
   10.8894   21.1733   19.2398 H   0  0  0  0  0  0  0  0  0  0  0  0
   10.2652   21.2275   20.8863 H   0  0  0  0  0  0  0  0  0  0  0  0
   12.9627   20.9127   17.2623 H   0  0  0  0  0  0  0  0  0  0  0  0
  1  8  1  0
  1 35  1  0
  2 15  2  0
  2 27  1  0
  2 32  1  0
  3 35  1  0
  3 37  1  0
  3 17  1  0
  3 40  1  0
  4 21  1  0
  4 41  1  0
  4 42  1  0
  5 22  2  0
  5 23  1  0
  5 43  1  0
  6 21  2  0
  6 15  1  0
  6 44  1  0
  7 14  2  0
  7 22  1  0
  7 45  1  0
  8 24  1  0
  8 46  1  0
  8 47  1  0
  9 34  1  0
 10 12  1  0
 10 29  1  0
 10 48  1  0
 10 49  1  0
 11  9  1  0
 11 36  1  0
 11 29  1  0
 11 50  1  1
 12 36  1  0
 12 13  1  0
 12 51  1  1
 13 26  1  0
 14 28  1  0
 14 52  1  0
 15 53  1  0
 16 32  2  0
 17 54  1  0
 17 55  1  0
 17 56  1  0
 18 21  1  0
 18 27  2  0
 18 57  1  0
 20 23  1  0
 20 58  1  0
 20 59  1  0
 22 60  1  0
 23 28  2  0
 24 19  1  0
 24 38  1  0
 24 61  1  1
 25 34  2  0
 26 33  1  0
 26 39  2  0
 27 62  1  0
 28 63  1  0
 30 32  2  0
 31 34  1  0
 31 64  1  0
 32  1  1  0
 33 38  1  0
 33 65  1  0
 35 66  1  0
 35 67  1  0
 36 31  1  0
 36 68  1  6
 37 69  1  0
 37 70  1  0
 37 71  1  0
 38 20  1  0
 38 72  1  6
M  CHG  1  19  -1
M  END
$$$$
